/*---------------------------------------------------------------------------*\
  =========                 |
  \\      /  F ield         | OpenFOAM: The Open Source CFD Toolbox
   \\    /   O peration     | Website:  https://openfoam.org
    \\  /    A nd           | Version:  12
     \\/     M anipulation  |
\*---------------------------------------------------------------------------*/
Build  : 12-86e126a7bc4d
Exec   : foamRun
Date   : Jan 15 2026
Time   : 15:48:10
Host   : "anh-MS-7E26"
PID    : 31107
I/O    : uncollated
Case   : /home/anh/Documents/studium/Strömungssimulation/cylinderRe1
nProcs : 1
sigFpe : Enabling floating point exception trapping (FOAM_SIGFPE).
fileModificationChecking : Monitoring run-time modified files using timeStampMaster (fileModificationSkew 10)
allowSystemOperations : Allowing user-supplied system call operations

// * * * * * * * * * * * * * * * * * * * * * * * * * * * * * * * * * * * * * //
Create time

Create mesh for time = 0

Selecting solver incompressibleFluid
Selecting viscosity model Newtonian
Selecting turbulence model type laminar
Selecting laminar stress model Stokes
No MRF models present

Courant Number mean: 0.0240922 max: 0.139291

PIMPLE: No convergence criteria found


PIMPLE: Operating solver in transient mode with 1 outer corrector
PIMPLE: Operating solver in PISO mode



Starting time loop

forcesBase forceCoeffs:
    Not including porosity effects
forces forceCoeffs:
    Not including porosity effects
forceCoeffs forceCoeffs:
    Not including porosity effects
forceCoeffs forceCoeffs write:
    Cm    = -3.83027e-15
    Cd    = 153.432
    Cl    = 0
    Cl(f) = -3.83027e-15
    Cl(r) = 3.83027e-15

Courant Number mean: 0.0240922 max: 0.139291
Time = 0.1s

DILUPBiCGStab:  Solving for Ux, Initial residual = 1, Final residual = 2.5817e-06, No Iterations 4
DILUPBiCGStab:  Solving for Uy, Initial residual = 1, Final residual = 3.54453e-06, No Iterations 4
GAMG:  Solving for p, Initial residual = 1, Final residual = 0.0531652, No Iterations 4
GAMG:  Solving for p, Initial residual = 0.163919, Final residual = 0.0150593, No Iterations 2
time step continuity errors : sum local = 5.63147e-06, global = -4.07962e-07
GAMG:  Solving for p, Initial residual = 0.120139, Final residual = 0.00827793, No Iterations 3
GAMG:  Solving for p, Initial residual = 0.121103, Final residual = 5.59687e-07, No Iterations 14
time step continuity errors : sum local = 1.9469e-10, global = 5.57521e-11, cumulative = 5.57521e-11
ExecutionTime = 0.08523 s  ClockTime = 0 s

Courant Number mean: 0.0244014 max: 0.160511
Time = 0.2s

DILUPBiCGStab:  Solving for Ux, Initial residual = 0.26917, Final residual = 8.58591e-06, No Iterations 3
DILUPBiCGStab:  Solving for Uy, Initial residual = 0.368819, Final residual = 3.83302e-06, No Iterations 3
GAMG:  Solving for p, Initial residual = 0.261787, Final residual = 0.0207536, No Iterations 3
GAMG:  Solving for p, Initial residual = 0.408953, Final residual = 0.0328259, No Iterations 2
time step continuity errors : sum local = 7.26209e-06, global = 6.18542e-07
GAMG:  Solving for p, Initial residual = 0.446103, Final residual = 0.0247842, No Iterations 3
GAMG:  Solving for p, Initial residual = 0.479834, Final residual = 6.96634e-07, No Iterations 17
time step continuity errors : sum local = 8.60829e-11, global = 2.2501e-11, cumulative = 7.82532e-11
ExecutionTime = 0.101895 s  ClockTime = 0 s

Courant Number mean: 0.0244014 max: 0.171087
Time = 0.3s

DILUPBiCGStab:  Solving for Ux, Initial residual = 0.293426, Final residual = 3.64419e-06, No Iterations 3
DILUPBiCGStab:  Solving for Uy, Initial residual = 0.411622, Final residual = 7.34232e-06, No Iterations 3
GAMG:  Solving for p, Initial residual = 0.456068, Final residual = 0.0343042, No Iterations 2
GAMG:  Solving for p, Initial residual = 0.216879, Final residual = 0.0147482, No Iterations 2
time step continuity errors : sum local = 3.78488e-06, global = -3.45892e-07
GAMG:  Solving for p, Initial residual = 0.440224, Final residual = 0.0288507, No Iterations 2
GAMG:  Solving for p, Initial residual = 0.324223, Final residual = 8.41096e-07, No Iterations 17
time step continuity errors : sum local = 8.8621e-11, global = -1.08967e-11, cumulative = 6.73565e-11
ExecutionTime = 0.11717 s  ClockTime = 0 s

Courant Number mean: 0.0243648 max: 0.144091
Time = 0.4s

DILUPBiCGStab:  Solving for Ux, Initial residual = 0.102267, Final residual = 7.30428e-06, No Iterations 3
DILUPBiCGStab:  Solving for Uy, Initial residual = 0.178281, Final residual = 2.68932e-06, No Iterations 3
GAMG:  Solving for p, Initial residual = 0.565701, Final residual = 0.0333838, No Iterations 2
GAMG:  Solving for p, Initial residual = 0.204268, Final residual = 0.0140307, No Iterations 2
time step continuity errors : sum local = 2.6172e-06, global = 8.74636e-08
GAMG:  Solving for p, Initial residual = 0.445739, Final residual = 0.0232174, No Iterations 2
GAMG:  Solving for p, Initial residual = 0.254882, Final residual = 8.86035e-07, No Iterations 16
time step continuity errors : sum local = 7.89661e-11, global = 1.25256e-11, cumulative = 7.98821e-11
ExecutionTime = 0.13197 s  ClockTime = 0 s

Courant Number mean: 0.0243757 max: 0.143442
Time = 0.5s

DILUPBiCGStab:  Solving for Ux, Initial residual = 0.0627077, Final residual = 5.72337e-06, No Iterations 3
DILUPBiCGStab:  Solving for Uy, Initial residual = 0.135968, Final residual = 2.93807e-06, No Iterations 3
GAMG:  Solving for p, Initial residual = 0.90089, Final residual = 0.0385883, No Iterations 2
GAMG:  Solving for p, Initial residual = 0.194755, Final residual = 0.0127282, No Iterations 2
time step continuity errors : sum local = 1.70786e-06, global = 2.03938e-08
GAMG:  Solving for p, Initial residual = 0.492806, Final residual = 0.0204112, No Iterations 2
GAMG:  Solving for p, Initial residual = 0.256645, Final residual = 5.92467e-07, No Iterations 14
time step continuity errors : sum local = 3.52912e-11, global = 1.16201e-11, cumulative = 9.15022e-11
ExecutionTime = 0.145788 s  ClockTime = 0 s

Courant Number mean: 0.0243566 max: 0.13537
Time = 0.6s

DILUPBiCGStab:  Solving for Ux, Initial residual = 0.0517433, Final residual = 4.97836e-06, No Iterations 3
DILUPBiCGStab:  Solving for Uy, Initial residual = 0.0969597, Final residual = 8.29575e-06, No Iterations 3
GAMG:  Solving for p, Initial residual = 0.836363, Final residual = 0.0278687, No Iterations 2
GAMG:  Solving for p, Initial residual = 0.17102, Final residual = 0.0104045, No Iterations 2
time step continuity errors : sum local = 1.18323e-06, global = -1.22316e-08
GAMG:  Solving for p, Initial residual = 0.556117, Final residual = 0.0195821, No Iterations 2
GAMG:  Solving for p, Initial residual = 0.254935, Final residual = 4.54504e-07, No Iterations 13
time step continuity errors : sum local = 2.04458e-11, global = -4.80063e-12, cumulative = 8.67016e-11
ExecutionTime = 0.1593 s  ClockTime = 0 s

Courant Number mean: 0.0243538 max: 0.131566
Time = 0.7s

DILUPBiCGStab:  Solving for Ux, Initial residual = 0.035275, Final residual = 4.05969e-06, No Iterations 3
DILUPBiCGStab:  Solving for Uy, Initial residual = 0.064409, Final residual = 8.62821e-06, No Iterations 3
GAMG:  Solving for p, Initial residual = 0.878695, Final residual = 0.022614, No Iterations 2
GAMG:  Solving for p, Initial residual = 0.136269, Final residual = 0.00738944, No Iterations 2
time step continuity errors : sum local = 8.14129e-07, global = 1.25091e-08
GAMG:  Solving for p, Initial residual = 0.502502, Final residual = 0.0151957, No Iterations 2
GAMG:  Solving for p, Initial residual = 0.200923, Final residual = 8.47919e-07, No Iterations 14
time step continuity errors : sum local = 3.8149e-11, global = 7.76567e-12, cumulative = 9.44672e-11
ExecutionTime = 0.17322 s  ClockTime = 0 s

Courant Number mean: 0.0243437 max: 0.126732
Time = 0.8s

DILUPBiCGStab:  Solving for Ux, Initial residual = 0.0348067, Final residual = 4.20563e-06, No Iterations 3
DILUPBiCGStab:  Solving for Uy, Initial residual = 0.0593723, Final residual = 6.67405e-06, No Iterations 3
GAMG:  Solving for p, Initial residual = 0.874523, Final residual = 0.084162, No Iterations 1
GAMG:  Solving for p, Initial residual = 0.113653, Final residual = 0.00529561, No Iterations 2
time step continuity errors : sum local = 5.21289e-07, global = -9.70031e-09
GAMG:  Solving for p, Initial residual = 0.568564, Final residual = 0.0155358, No Iterations 2
GAMG:  Solving for p, Initial residual = 0.214722, Final residual = 7.35388e-07, No Iterations 14
time step continuity errors : sum local = 3.02631e-11, global = -8.02625e-12, cumulative = 8.6441e-11
ExecutionTime = 0.186574 s  ClockTime = 0 s

Courant Number mean: 0.0243379 max: 0.122295
Time = 0.9s

DILUPBiCGStab:  Solving for Ux, Initial residual = 0.0285564, Final residual = 3.40597e-06, No Iterations 3
DILUPBiCGStab:  Solving for Uy, Initial residual = 0.0452592, Final residual = 6.78312e-06, No Iterations 3
GAMG:  Solving for p, Initial residual = 0.831624, Final residual = 0.0677186, No Iterations 1
GAMG:  Solving for p, Initial residual = 0.0935317, Final residual = 0.00435248, No Iterations 2
time step continuity errors : sum local = 4.32514e-07, global = 7.55336e-09
GAMG:  Solving for p, Initial residual = 0.517539, Final residual = 0.0116634, No Iterations 2
GAMG:  Solving for p, Initial residual = 0.174841, Final residual = 8.27444e-07, No Iterations 14
time step continuity errors : sum local = 3.32689e-11, global = 8.74429e-12, cumulative = 9.51853e-11
ExecutionTime = 0.199813 s  ClockTime = 0 s

Courant Number mean: 0.0243326 max: 0.119573
Time = 1s

DILUPBiCGStab:  Solving for Ux, Initial residual = 0.027202, Final residual = 3.72056e-06, No Iterations 3
DILUPBiCGStab:  Solving for Uy, Initial residual = 0.0398033, Final residual = 5.53909e-06, No Iterations 3
GAMG:  Solving for p, Initial residual = 0.91179, Final residual = 0.0708898, No Iterations 1
GAMG:  Solving for p, Initial residual = 0.0977543, Final residual = 0.00466811, No Iterations 2
time step continuity errors : sum local = 4.10986e-07, global = -6.27674e-09
GAMG:  Solving for p, Initial residual = 0.530992, Final residual = 0.0513884, No Iterations 1
GAMG:  Solving for p, Initial residual = 0.158415, Final residual = 8.8887e-07, No Iterations 14
time step continuity errors : sum local = 3.34928e-11, global = -1.17552e-11, cumulative = 8.34301e-11
ExecutionTime = 0.212606 s  ClockTime = 0 s

forceCoeffs forceCoeffs write:
    Cm    = 0.0051844
    Cd    = -58.2536
    Cl    = 1.71545
    Cl(f) = 0.862911
    Cl(r) = 0.852542

Courant Number mean: 0.0243248 max: 0.115851
Time = 1.1s

DILUPBiCGStab:  Solving for Ux, Initial residual = 0.0273038, Final residual = 3.02538e-06, No Iterations 3
DILUPBiCGStab:  Solving for Uy, Initial residual = 0.0451306, Final residual = 5.85228e-06, No Iterations 3
GAMG:  Solving for p, Initial residual = 0.792293, Final residual = 0.0552117, No Iterations 1
GAMG:  Solving for p, Initial residual = 0.0918278, Final residual = 0.00497496, No Iterations 2
time step continuity errors : sum local = 4.82882e-07, global = 8.1676e-09
GAMG:  Solving for p, Initial residual = 0.521398, Final residual = 0.0432884, No Iterations 1
GAMG:  Solving for p, Initial residual = 0.159065, Final residual = 9.75347e-07, No Iterations 14
time step continuity errors : sum local = 3.62906e-11, global = 6.74126e-12, cumulative = 9.01713e-11
ExecutionTime = 0.2258 s  ClockTime = 0 s

Courant Number mean: 0.0243228 max: 0.114643
Time = 1.2s

DILUPBiCGStab:  Solving for Ux, Initial residual = 0.0257188, Final residual = 3.45874e-06, No Iterations 3
DILUPBiCGStab:  Solving for Uy, Initial residual = 0.0318481, Final residual = 4.67486e-06, No Iterations 3
GAMG:  Solving for p, Initial residual = 0.910196, Final residual = 0.0622708, No Iterations 1
GAMG:  Solving for p, Initial residual = 0.10241, Final residual = 0.00602437, No Iterations 2
time step continuity errors : sum local = 5.22708e-07, global = 3.23755e-09
GAMG:  Solving for p, Initial residual = 0.49185, Final residual = 0.0392152, No Iterations 1
GAMG:  Solving for p, Initial residual = 0.143002, Final residual = 8.30943e-07, No Iterations 13
time step continuity errors : sum local = 3.34221e-11, global = -7.43986e-12, cumulative = 8.27315e-11
ExecutionTime = 0.238264 s  ClockTime = 0 s

Courant Number mean: 0.0243135 max: 0.11176
Time = 1.3s

DILUPBiCGStab:  Solving for Ux, Initial residual = 0.0261304, Final residual = 2.80242e-06, No Iterations 3
DILUPBiCGStab:  Solving for Uy, Initial residual = 0.0445968, Final residual = 4.84177e-06, No Iterations 3
GAMG:  Solving for p, Initial residual = 0.835607, Final residual = 0.057886, No Iterations 1
GAMG:  Solving for p, Initial residual = 0.0995622, Final residual = 0.00649361, No Iterations 2
time step continuity errors : sum local = 5.73606e-07, global = -3.22493e-09
GAMG:  Solving for p, Initial residual = 0.53225, Final residual = 0.0427217, No Iterations 1
GAMG:  Solving for p, Initial residual = 0.165946, Final residual = 7.05903e-07, No Iterations 12
time step continuity errors : sum local = 2.41136e-11, global = -6.28517e-12, cumulative = 7.64463e-11
ExecutionTime = 0.250319 s  ClockTime = 0 s

Courant Number mean: 0.0243123 max: 0.110901
Time = 1.4s

DILUPBiCGStab:  Solving for Ux, Initial residual = 0.0235188, Final residual = 3.1809e-06, No Iterations 3
DILUPBiCGStab:  Solving for Uy, Initial residual = 0.0301871, Final residual = 3.85281e-06, No Iterations 3
GAMG:  Solving for p, Initial residual = 0.902008, Final residual = 0.0637533, No Iterations 1
GAMG:  Solving for p, Initial residual = 0.103413, Final residual = 0.00701226, No Iterations 2
time step continuity errors : sum local = 5.88157e-07, global = 3.24302e-09
GAMG:  Solving for p, Initial residual = 0.476374, Final residual = 0.0384872, No Iterations 1
GAMG:  Solving for p, Initial residual = 0.137398, Final residual = 9.52448e-07, No Iterations 12
time step continuity errors : sum local = 3.84867e-11, global = -9.90884e-12, cumulative = 6.65375e-11
ExecutionTime = 0.262263 s  ClockTime = 0 s

Courant Number mean: 0.0243035 max: 0.108215
Time = 1.5s

DILUPBiCGStab:  Solving for Ux, Initial residual = 0.0241829, Final residual = 2.6042e-06, No Iterations 3
DILUPBiCGStab:  Solving for Uy, Initial residual = 0.043075, Final residual = 4.08935e-06, No Iterations 3
GAMG:  Solving for p, Initial residual = 0.824979, Final residual = 0.0590984, No Iterations 1
GAMG:  Solving for p, Initial residual = 0.100684, Final residual = 0.00726588, No Iterations 2
time step continuity errors : sum local = 6.19041e-07, global = -1.47278e-09
GAMG:  Solving for p, Initial residual = 0.524009, Final residual = 0.0426387, No Iterations 1
GAMG:  Solving for p, Initial residual = 0.163271, Final residual = 9.58844e-07, No Iterations 13
time step continuity errors : sum local = 3.22437e-11, global = 9.20447e-12, cumulative = 7.57419e-11
ExecutionTime = 0.275297 s  ClockTime = 0 s

Courant Number mean: 0.0243026 max: 0.107544
Time = 1.6s

DILUPBiCGStab:  Solving for Ux, Initial residual = 0.0218551, Final residual = 2.91576e-06, No Iterations 3
DILUPBiCGStab:  Solving for Uy, Initial residual = 0.0294811, Final residual = 3.2616e-06, No Iterations 3
GAMG:  Solving for p, Initial residual = 0.910415, Final residual = 0.0663392, No Iterations 1
GAMG:  Solving for p, Initial residual = 0.105354, Final residual = 0.0077491, No Iterations 2
time step continuity errors : sum local = 6.21361e-07, global = 2.14281e-09
GAMG:  Solving for p, Initial residual = 0.474692, Final residual = 0.0387966, No Iterations 1
GAMG:  Solving for p, Initial residual = 0.137527, Final residual = 8.51628e-07, No Iterations 13
time step continuity errors : sum local = 3.3268e-11, global = -8.97808e-12, cumulative = 6.67639e-11
ExecutionTime = 0.28779 s  ClockTime = 0 s

Courant Number mean: 0.024294 max: 0.105074
Time = 1.7s

DILUPBiCGStab:  Solving for Ux, Initial residual = 0.0224038, Final residual = 2.41616e-06, No Iterations 3
DILUPBiCGStab:  Solving for Uy, Initial residual = 0.0410898, Final residual = 3.52078e-06, No Iterations 3
GAMG:  Solving for p, Initial residual = 0.821449, Final residual = 0.0602791, No Iterations 1
GAMG:  Solving for p, Initial residual = 0.101545, Final residual = 0.0077645, No Iterations 2
time step continuity errors : sum local = 6.37046e-07, global = -6.84314e-10
GAMG:  Solving for p, Initial residual = 0.517024, Final residual = 0.0424558, No Iterations 1
GAMG:  Solving for p, Initial residual = 0.160323, Final residual = 7.30853e-07, No Iterations 14
time step continuity errors : sum local = 2.41721e-11, global = 4.51311e-12, cumulative = 7.1277e-11
ExecutionTime = 0.300769 s  ClockTime = 0 s

Courant Number mean: 0.0242932 max: 0.10456
Time = 1.8s

DILUPBiCGStab:  Solving for Ux, Initial residual = 0.0203341, Final residual = 2.6743e-06, No Iterations 3
DILUPBiCGStab:  Solving for Uy, Initial residual = 0.0285569, Final residual = 2.84132e-06, No Iterations 3
GAMG:  Solving for p, Initial residual = 0.8967, Final residual = 0.0665805, No Iterations 1
GAMG:  Solving for p, Initial residual = 0.106717, Final residual = 0.00822452, No Iterations 2
time step continuity errors : sum local = 6.31534e-07, global = 1.28777e-09
GAMG:  Solving for p, Initial residual = 0.474724, Final residual = 0.0390602, No Iterations 1
GAMG:  Solving for p, Initial residual = 0.138005, Final residual = 6.3875e-07, No Iterations 14
time step continuity errors : sum local = 2.40044e-11, global = -4.48657e-12, cumulative = 6.67904e-11
ExecutionTime = 0.313618 s  ClockTime = 0 s

Courant Number mean: 0.024285 max: 0.102287
Time = 1.9s

DILUPBiCGStab:  Solving for Ux, Initial residual = 0.0207619, Final residual = 2.24191e-06, No Iterations 3
DILUPBiCGStab:  Solving for Uy, Initial residual = 0.0389363, Final residual = 3.09318e-06, No Iterations 3
GAMG:  Solving for p, Initial residual = 0.819439, Final residual = 0.0610192, No Iterations 1
GAMG:  Solving for p, Initial residual = 0.10208, Final residual = 0.00807385, No Iterations 2
time step continuity errors : sum local = 6.38033e-07, global = 1.87601e-11
GAMG:  Solving for p, Initial residual = 0.511728, Final residual = 0.0422334, No Iterations 1
GAMG:  Solving for p, Initial residual = 0.157886, Final residual = 7.7122e-07, No Iterations 14
time step continuity errors : sum local = 2.49746e-11, global = 6.1797e-12, cumulative = 7.29701e-11
ExecutionTime = 0.326516 s  ClockTime = 0 s

Courant Number mean: 0.0242841 max: 0.101854
Time = 2s

DILUPBiCGStab:  Solving for Ux, Initial residual = 0.0189207, Final residual = 2.45862e-06, No Iterations 3
DILUPBiCGStab:  Solving for Uy, Initial residual = 0.0274355, Final residual = 2.53827e-06, No Iterations 3
GAMG:  Solving for p, Initial residual = 0.884889, Final residual = 0.0664322, No Iterations 1
GAMG:  Solving for p, Initial residual = 0.107723, Final residual = 0.00853407, No Iterations 2
time step continuity errors : sum local = 6.28032e-07, global = 4.56844e-10
GAMG:  Solving for p, Initial residual = 0.475458, Final residual = 0.039275, No Iterations 1
GAMG:  Solving for p, Initial residual = 0.138666, Final residual = 6.91817e-07, No Iterations 14
time step continuity errors : sum local = 2.49504e-11, global = -5.92969e-12, cumulative = 6.70404e-11
ExecutionTime = 0.340015 s  ClockTime = 0 s

forceCoeffs forceCoeffs write:
    Cm    = 0.00337334
    Cd    = -38.2138
    Cl    = 0.0858299
    Cl(f) = 0.0462883
    Cl(r) = 0.0395416

Courant Number mean: 0.0242759 max: 0.0998295
Time = 2.1s

DILUPBiCGStab:  Solving for Ux, Initial residual = 0.0192672, Final residual = 2.0832e-06, No Iterations 3
DILUPBiCGStab:  Solving for Uy, Initial residual = 0.0367934, Final residual = 2.76916e-06, No Iterations 3
GAMG:  Solving for p, Initial residual = 0.818201, Final residual = 0.061462, No Iterations 1
GAMG:  Solving for p, Initial residual = 0.102409, Final residual = 0.00826344, No Iterations 2
time step continuity errors : sum local = 6.29026e-07, global = 7.4069e-10
GAMG:  Solving for p, Initial residual = 0.507397, Final residual = 0.0419961, No Iterations 1
GAMG:  Solving for p, Initial residual = 0.155858, Final residual = 7.96912e-07, No Iterations 14
time step continuity errors : sum local = 2.51889e-11, global = 8.39345e-12, cumulative = 7.54339e-11
ExecutionTime = 0.353823 s  ClockTime = 0 s

Courant Number mean: 0.0242749 max: 0.0994066
Time = 2.2s

DILUPBiCGStab:  Solving for Ux, Initial residual = 0.0176264, Final residual = 2.26728e-06, No Iterations 3
DILUPBiCGStab:  Solving for Uy, Initial residual = 0.0261958, Final residual = 2.30693e-06, No Iterations 3
GAMG:  Solving for p, Initial residual = 0.874343, Final residual = 0.0660782, No Iterations 1
GAMG:  Solving for p, Initial residual = 0.107391, Final residual = 0.00865091, No Iterations 2
time step continuity errors : sum local = 6.16807e-07, global = -3.54593e-10
GAMG:  Solving for p, Initial residual = 0.476544, Final residual = 0.0394508, No Iterations 1
GAMG:  Solving for p, Initial residual = 0.139419, Final residual = 7.16868e-07, No Iterations 14
time step continuity errors : sum local = 2.47833e-11, global = -8.11444e-12, cumulative = 6.73194e-11
ExecutionTime = 0.366874 s  ClockTime = 0 s

Courant Number mean: 0.0242669 max: 0.0975947
Time = 2.3s

DILUPBiCGStab:  Solving for Ux, Initial residual = 0.0179193, Final residual = 1.93953e-06, No Iterations 3
DILUPBiCGStab:  Solving for Uy, Initial residual = 0.0347298, Final residual = 2.512e-06, No Iterations 3
GAMG:  Solving for p, Initial residual = 0.817201, Final residual = 0.0617175, No Iterations 1
GAMG:  Solving for p, Initial residual = 0.102618, Final residual = 0.00838055, No Iterations 2
time step continuity errors : sum local = 6.14579e-07, global = 1.43928e-09
GAMG:  Solving for p, Initial residual = 0.503601, Final residual = 0.041748, No Iterations 1
GAMG:  Solving for p, Initial residual = 0.154075, Final residual = 8.55738e-07, No Iterations 14
time step continuity errors : sum local = 2.636e-11, global = 1.01204e-11, cumulative = 7.74398e-11
ExecutionTime = 0.380449 s  ClockTime = 0 s

Courant Number mean: 0.0242657 max: 0.0972462
Time = 2.4s

DILUPBiCGStab:  Solving for Ux, Initial residual = 0.0164493, Final residual = 2.09739e-06, No Iterations 3
DILUPBiCGStab:  Solving for Uy, Initial residual = 0.0249266, Final residual = 2.1209e-06, No Iterations 3
GAMG:  Solving for p, Initial residual = 0.864412, Final residual = 0.065596, No Iterations 1
GAMG:  Solving for p, Initial residual = 0.106829, Final residual = 0.00869354, No Iterations 2
time step continuity errors : sum local = 6.01366e-07, global = -1.09057e-09
GAMG:  Solving for p, Initial residual = 0.477757, Final residual = 0.0396062, No Iterations 1
GAMG:  Solving for p, Initial residual = 0.140216, Final residual = 7.78482e-07, No Iterations 14
time step continuity errors : sum local = 2.57901e-11, global = -9.83661e-12, cumulative = 6.76032e-11
ExecutionTime = 0.393338 s  ClockTime = 0 s

Courant Number mean: 0.0242578 max: 0.0955555
Time = 2.5s

DILUPBiCGStab:  Solving for Ux, Initial residual = 0.0167037, Final residual = 1.80949e-06, No Iterations 3
DILUPBiCGStab:  Solving for Uy, Initial residual = 0.0327807, Final residual = 2.30323e-06, No Iterations 3
GAMG:  Solving for p, Initial residual = 0.816373, Final residual = 0.0618731, No Iterations 1
GAMG:  Solving for p, Initial residual = 0.102765, Final residual = 0.0084528, No Iterations 2
time step continuity errors : sum local = 5.97235e-07, global = 2.10314e-09
GAMG:  Solving for p, Initial residual = 0.500059, Final residual = 0.0414989, No Iterations 1
GAMG:  Solving for p, Initial residual = 0.152449, Final residual = 9.06209e-07, No Iterations 14
time step continuity errors : sum local = 2.71838e-11, global = 1.08866e-11, cumulative = 7.84898e-11
ExecutionTime = 0.406267 s  ClockTime = 0 s

Courant Number mean: 0.0242565 max: 0.0952677
Time = 2.6s

DILUPBiCGStab:  Solving for Ux, Initial residual = 0.015381, Final residual = 1.94599e-06, No Iterations 3
DILUPBiCGStab:  Solving for Uy, Initial residual = 0.0236771, Final residual = 1.96445e-06, No Iterations 3
GAMG:  Solving for p, Initial residual = 0.854875, Final residual = 0.0650505, No Iterations 1
GAMG:  Solving for p, Initial residual = 0.106245, Final residual = 0.00869935, No Iterations 2
time step continuity errors : sum local = 5.83768e-07, global = -1.79892e-09
GAMG:  Solving for p, Initial residual = 0.479099, Final residual = 0.0397548, No Iterations 1
GAMG:  Solving for p, Initial residual = 0.141075, Final residual = 8.36991e-07, No Iterations 14
time step continuity errors : sum local = 2.65633e-11, global = -1.06254e-11, cumulative = 6.78645e-11
ExecutionTime = 0.419386 s  ClockTime = 0 s

Courant Number mean: 0.0242488 max: 0.0937014
Time = 2.7s

DILUPBiCGStab:  Solving for Ux, Initial residual = 0.0156058, Final residual = 1.69152e-06, No Iterations 3
DILUPBiCGStab:  Solving for Uy, Initial residual = 0.0309578, Final residual = 2.12686e-06, No Iterations 3
GAMG:  Solving for p, Initial residual = 0.815526, Final residual = 0.061957, No Iterations 1
GAMG:  Solving for p, Initial residual = 0.102888, Final residual = 0.00849807, No Iterations 2
time step continuity errors : sum local = 5.78557e-07, global = 2.71797e-09
GAMG:  Solving for p, Initial residual = 0.496665, Final residual = 0.0412492, No Iterations 1
GAMG:  Solving for p, Initial residual = 0.150919, Final residual = 9.39439e-07, No Iterations 14
time step continuity errors : sum local = 2.74336e-11, global = 1.07749e-11, cumulative = 7.86394e-11
ExecutionTime = 0.432321 s  ClockTime = 0 s

Courant Number mean: 0.0242473 max: 0.0934495
Time = 2.8s

DILUPBiCGStab:  Solving for Ux, Initial residual = 0.0144107, Final residual = 1.81036e-06, No Iterations 3
DILUPBiCGStab:  Solving for Uy, Initial residual = 0.0224731, Final residual = 1.82907e-06, No Iterations 3
GAMG:  Solving for p, Initial residual = 0.845777, Final residual = 0.0644793, No Iterations 1
GAMG:  Solving for p, Initial residual = 0.105665, Final residual = 0.00868311, No Iterations 2
time step continuity errors : sum local = 5.65212e-07, global = -2.4449e-09
GAMG:  Solving for p, Initial residual = 0.480507, Final residual = 0.0399033, No Iterations 1
GAMG:  Solving for p, Initial residual = 0.141971, Final residual = 8.80627e-07, No Iterations 14
time step continuity errors : sum local = 2.67733e-11, global = -1.05294e-11, cumulative = 6.81099e-11
ExecutionTime = 0.445447 s  ClockTime = 0 s

Courant Number mean: 0.0242396 max: 0.0923061
Time = 2.9s

DILUPBiCGStab:  Solving for Ux, Initial residual = 0.0146119, Final residual = 1.58417e-06, No Iterations 3
DILUPBiCGStab:  Solving for Uy, Initial residual = 0.0292613, Final residual = 1.97418e-06, No Iterations 3
GAMG:  Solving for p, Initial residual = 0.81467, Final residual = 0.0620001, No Iterations 1
GAMG:  Solving for p, Initial residual = 0.103001, Final residual = 0.0085266, No Iterations 2
time step continuity errors : sum local = 5.59389e-07, global = 3.285e-09
GAMG:  Solving for p, Initial residual = 0.493338, Final residual = 0.0409993, No Iterations 1
GAMG:  Solving for p, Initial residual = 0.149446, Final residual = 9.65682e-07, No Iterations 14
time step continuity errors : sum local = 2.74515e-11, global = 1.00752e-11, cumulative = 7.81851e-11
ExecutionTime = 0.458325 s  ClockTime = 0 s

Courant Number mean: 0.0242381 max: 0.0917724
Time = 3s

DILUPBiCGStab:  Solving for Ux, Initial residual = 0.0135279, Final residual = 1.68821e-06, No Iterations 3
DILUPBiCGStab:  Solving for Uy, Initial residual = 0.0213284, Final residual = 9.8511e-06, No Iterations 2
GAMG:  Solving for p, Initial residual = 0.836941, Final residual = 0.0638932, No Iterations 1
GAMG:  Solving for p, Initial residual = 0.105089, Final residual = 0.00865353, No Iterations 2
time step continuity errors : sum local = 5.46404e-07, global = -3.02993e-09
GAMG:  Solving for p, Initial residual = 0.481863, Final residual = 0.0400444, No Iterations 1
GAMG:  Solving for p, Initial residual = 0.142854, Final residual = 9.18714e-07, No Iterations 14
time step continuity errors : sum local = 2.67658e-11, global = -9.84564e-12, cumulative = 6.83395e-11
ExecutionTime = 0.471408 s  ClockTime = 0 s

forceCoeffs forceCoeffs write:
    Cm    = 0.00214771
    Cd    = -29.6082
    Cl    = -0.472055
    Cl(f) = -0.23388
    Cl(r) = -0.238175

Courant Number mean: 0.0242305 max: 0.0910174
Time = 3.1s

DILUPBiCGStab:  Solving for Ux, Initial residual = 0.013709, Final residual = 1.48597e-06, No Iterations 3
DILUPBiCGStab:  Solving for Uy, Initial residual = 0.0276865, Final residual = 1.83764e-06, No Iterations 3
GAMG:  Solving for p, Initial residual = 0.813946, Final residual = 0.0620276, No Iterations 1
GAMG:  Solving for p, Initial residual = 0.103126, Final residual = 0.00854601, No Iterations 2
time step continuity errors : sum local = 5.40264e-07, global = 3.80693e-09
GAMG:  Solving for p, Initial residual = 0.490092, Final residual = 0.0407544, No Iterations 1
GAMG:  Solving for p, Initial residual = 0.148029, Final residual = 9.99007e-07, No Iterations 14
time step continuity errors : sum local = 2.76432e-11, global = 9.09089e-12, cumulative = 7.74304e-11
ExecutionTime = 0.48477 s  ClockTime = 0 s

Courant Number mean: 0.0242288 max: 0.0905005
Time = 3.2s

DILUPBiCGStab:  Solving for Ux, Initial residual = 0.0127223, Final residual = 1.57744e-06, No Iterations 3
DILUPBiCGStab:  Solving for Uy, Initial residual = 0.020248, Final residual = 9.25771e-06, No Iterations 2
GAMG:  Solving for p, Initial residual = 0.82823, Final residual = 0.0632912, No Iterations 1
GAMG:  Solving for p, Initial residual = 0.104506, Final residual = 0.00861363, No Iterations 2
time step continuity errors : sum local = 5.27702e-07, global = -3.55414e-09
GAMG:  Solving for p, Initial residual = 0.483258, Final residual = 0.0401824, No Iterations 1
GAMG:  Solving for p, Initial residual = 0.14374, Final residual = 9.64687e-07, No Iterations 14
time step continuity errors : sum local = 2.69381e-11, global = -8.86316e-12, cumulative = 6.85672e-11
ExecutionTime = 0.497555 s  ClockTime = 0 s

Courant Number mean: 0.0242213 max: 0.0897997
Time = 3.3s

DILUPBiCGStab:  Solving for Ux, Initial residual = 0.0128863, Final residual = 9.65612e-06, No Iterations 2
DILUPBiCGStab:  Solving for Uy, Initial residual = 0.0262264, Final residual = 9.67877e-06, No Iterations 2
GAMG:  Solving for p, Initial residual = 0.813228, Final residual = 0.0619661, No Iterations 1
GAMG:  Solving for p, Initial residual = 0.103201, Final residual = 0.00855234, No Iterations 2
time step continuity errors : sum local = 5.21026e-07, global = 4.24e-09
GAMG:  Solving for p, Initial residual = 0.486916, Final residual = 0.040459, No Iterations 1
GAMG:  Solving for p, Initial residual = 0.146598, Final residual = 5.428e-07, No Iterations 15
time step continuity errors : sum local = 1.46158e-11, global = 4.20244e-12, cumulative = 7.27697e-11
ExecutionTime = 0.511034 s  ClockTime = 0 s

Courant Number mean: 0.0242194 max: 0.0893121
Time = 3.4s

DILUPBiCGStab:  Solving for Ux, Initial residual = 0.011979, Final residual = 1.47553e-06, No Iterations 3
DILUPBiCGStab:  Solving for Uy, Initial residual = 0.0192219, Final residual = 8.70102e-06, No Iterations 2
GAMG:  Solving for p, Initial residual = 0.819824, Final residual = 0.0626528, No Iterations 1
GAMG:  Solving for p, Initial residual = 0.103883, Final residual = 0.00856189, No Iterations 2
time step continuity errors : sum local = 5.08809e-07, global = -4.03028e-09
GAMG:  Solving for p, Initial residual = 0.484586, Final residual = 0.040287, No Iterations 1
GAMG:  Solving for p, Initial residual = 0.144562, Final residual = 5.31712e-07, No Iterations 15
time step continuity errors : sum local = 1.42284e-11, global = -4.1033e-12, cumulative = 6.86664e-11
ExecutionTime = 0.524599 s  ClockTime = 0 s

Courant Number mean: 0.0242121 max: 0.0886478
Time = 3.5s

DILUPBiCGStab:  Solving for Ux, Initial residual = 0.0121269, Final residual = 9.08544e-06, No Iterations 2
DILUPBiCGStab:  Solving for Uy, Initial residual = 0.0248589, Final residual = 9.09148e-06, No Iterations 2
GAMG:  Solving for p, Initial residual = 0.812473, Final residual = 0.0619335, No Iterations 1
GAMG:  Solving for p, Initial residual = 0.103288, Final residual = 0.0085567, No Iterations 2
time step continuity errors : sum local = 5.02302e-07, global = 4.69597e-09
GAMG:  Solving for p, Initial residual = 0.483634, Final residual = 0.0401946, No Iterations 1
GAMG:  Solving for p, Initial residual = 0.14516, Final residual = 5.39613e-07, No Iterations 15
time step continuity errors : sum local = 1.41446e-11, global = 4.72414e-12, cumulative = 7.33905e-11
ExecutionTime = 0.537804 s  ClockTime = 0 s

Courant Number mean: 0.0242101 max: 0.0881867
Time = 3.6s

DILUPBiCGStab:  Solving for Ux, Initial residual = 0.011299, Final residual = 9.89307e-06, No Iterations 2
DILUPBiCGStab:  Solving for Uy, Initial residual = 0.018263, Final residual = 8.19503e-06, No Iterations 2
GAMG:  Solving for p, Initial residual = 0.811233, Final residual = 0.0619555, No Iterations 1
GAMG:  Solving for p, Initial residual = 0.103203, Final residual = 0.00850176, No Iterations 2
time step continuity errors : sum local = 4.9025e-07, global = -4.42861e-09
GAMG:  Solving for p, Initial residual = 0.486172, Final residual = 0.0403795, No Iterations 1
GAMG:  Solving for p, Initial residual = 0.145476, Final residual = 5.36842e-07, No Iterations 15
time step continuity errors : sum local = 1.37543e-11, global = -4.58168e-12, cumulative = 6.88088e-11
ExecutionTime = 0.550921 s  ClockTime = 0 s

Courant Number mean: 0.0242028 max: 0.0875576
Time = 3.7s

DILUPBiCGStab:  Solving for Ux, Initial residual = 0.0114274, Final residual = 8.54514e-06, No Iterations 2
DILUPBiCGStab:  Solving for Uy, Initial residual = 0.0235796, Final residual = 8.55101e-06, No Iterations 2
GAMG:  Solving for p, Initial residual = 0.812144, Final residual = 0.061894, No Iterations 1
GAMG:  Solving for p, Initial residual = 0.103379, Final residual = 0.0085561, No Iterations 2
time step continuity errors : sum local = 4.8372e-07, global = 5.04836e-09
GAMG:  Solving for p, Initial residual = 0.480155, Final residual = 0.0398923, No Iterations 1
GAMG:  Solving for p, Initial residual = 0.143594, Final residual = 5.46657e-07, No Iterations 15
time step continuity errors : sum local = 1.39558e-11, global = 5.13754e-12, cumulative = 7.39464e-11
ExecutionTime = 0.564127 s  ClockTime = 0 s

Courant Number mean: 0.0242007 max: 0.0871208
Time = 3.8s

DILUPBiCGStab:  Solving for Ux, Initial residual = 0.0106702, Final residual = 9.28819e-06, No Iterations 2
DILUPBiCGStab:  Solving for Uy, Initial residual = 0.0173542, Final residual = 7.72395e-06, No Iterations 2
GAMG:  Solving for p, Initial residual = 0.80275, Final residual = 0.0613097, No Iterations 1
GAMG:  Solving for p, Initial residual = 0.10256, Final residual = 0.00844382, No Iterations 2
time step continuity errors : sum local = 4.72401e-07, global = -4.81615e-09
GAMG:  Solving for p, Initial residual = 0.487589, Final residual = 0.0405047, No Iterations 1
GAMG:  Solving for p, Initial residual = 0.146378, Final residual = 5.5353e-07, No Iterations 15
time step continuity errors : sum local = 1.35856e-11, global = -5.00525e-12, cumulative = 6.89411e-11
ExecutionTime = 0.57735 s  ClockTime = 0 s

Courant Number mean: 0.0241935 max: 0.0865272
Time = 3.9s

DILUPBiCGStab:  Solving for Ux, Initial residual = 0.0107866, Final residual = 8.05544e-06, No Iterations 2
DILUPBiCGStab:  Solving for Uy, Initial residual = 0.0223949, Final residual = 8.05469e-06, No Iterations 2
GAMG:  Solving for p, Initial residual = 0.811602, Final residual = 0.0618738, No Iterations 1
GAMG:  Solving for p, Initial residual = 0.103494, Final residual = 0.00855829, No Iterations 2
time step continuity errors : sum local = 4.66109e-07, global = 5.39283e-09
GAMG:  Solving for p, Initial residual = 0.476727, Final residual = 0.0396196, No Iterations 1
GAMG:  Solving for p, Initial residual = 0.142088, Final residual = 5.58377e-07, No Iterations 15
time step continuity errors : sum local = 1.38882e-11, global = 5.45951e-12, cumulative = 7.44006e-11
ExecutionTime = 0.590451 s  ClockTime = 0 s

Courant Number mean: 0.0241913 max: 0.0861099
Time = 4s

DILUPBiCGStab:  Solving for Ux, Initial residual = 0.0100935, Final residual = 8.73466e-06, No Iterations 2
DILUPBiCGStab:  Solving for Uy, Initial residual = 0.0165078, Final residual = 7.28953e-06, No Iterations 2
GAMG:  Solving for p, Initial residual = 0.794252, Final residual = 0.0606869, No Iterations 1
GAMG:  Solving for p, Initial residual = 0.101946, Final residual = 0.00838734, No Iterations 2
time step continuity errors : sum local = 4.55386e-07, global = -5.15454e-09
GAMG:  Solving for p, Initial residual = 0.489048, Final residual = 0.0406445, No Iterations 1
GAMG:  Solving for p, Initial residual = 0.147328, Final residual = 5.74972e-07, No Iterations 15
time step continuity errors : sum local = 1.35206e-11, global = -5.30943e-12, cumulative = 6.90912e-11
ExecutionTime = 0.603479 s  ClockTime = 0 s

forceCoeffs forceCoeffs write:
    Cm    = 0.00203688
    Cd    = -22.4354
    Cl    = -0.655252
    Cl(f) = -0.325589
    Cl(r) = -0.329663

Courant Number mean: 0.0241841 max: 0.085579
Time = 4.1s

DILUPBiCGStab:  Solving for Ux, Initial residual = 0.0101975, Final residual = 7.6044e-06, No Iterations 2
DILUPBiCGStab:  Solving for Uy, Initial residual = 0.0212949, Final residual = 7.59751e-06, No Iterations 2
GAMG:  Solving for p, Initial residual = 0.811219, Final residual = 0.0618812, No Iterations 1
GAMG:  Solving for p, Initial residual = 0.103648, Final residual = 0.008563, No Iterations 2
time step continuity errors : sum local = 4.49313e-07, global = 5.68576e-09
GAMG:  Solving for p, Initial residual = 0.473216, Final residual = 0.0393473, No Iterations 1
GAMG:  Solving for p, Initial residual = 0.140558, Final residual = 5.69417e-07, No Iterations 15
time step continuity errors : sum local = 1.38074e-11, global = 5.64392e-12, cumulative = 7.47351e-11
ExecutionTime = 0.616219 s  ClockTime = 0 s

Courant Number mean: 0.0241818 max: 0.0851496
Time = 4.2s

DILUPBiCGStab:  Solving for Ux, Initial residual = 0.00956263, Final residual = 8.22669e-06, No Iterations 2
DILUPBiCGStab:  Solving for Uy, Initial residual = 0.0157166, Final residual = 6.88717e-06, No Iterations 2
GAMG:  Solving for p, Initial residual = 0.785822, Final residual = 0.060083, No Iterations 1
GAMG:  Solving for p, Initial residual = 0.101353, Final residual = 0.00833134, No Iterations 2
time step continuity errors : sum local = 4.39093e-07, global = -5.47353e-09
GAMG:  Solving for p, Initial residual = 0.49048, Final residual = 0.040788, No Iterations 1
GAMG:  Solving for p, Initial residual = 0.148273, Final residual = 5.97206e-07, No Iterations 15
time step continuity errors : sum local = 1.34605e-11, global = -5.50839e-12, cumulative = 6.92267e-11
ExecutionTime = 0.627979 s  ClockTime = 0 s

Courant Number mean: 0.0241747 max: 0.0846759
Time = 4.3s

DILUPBiCGStab:  Solving for Ux, Initial residual = 0.00965349, Final residual = 7.18695e-06, No Iterations 2
DILUPBiCGStab:  Solving for Uy, Initial residual = 0.0202696, Final residual = 7.17484e-06, No Iterations 2
GAMG:  Solving for p, Initial residual = 0.810689, Final residual = 0.0618897, No Iterations 1
GAMG:  Solving for p, Initial residual = 0.103807, Final residual = 0.00856654, No Iterations 2
time step continuity errors : sum local = 4.33204e-07, global = 5.97533e-09
GAMG:  Solving for p, Initial residual = 0.469739, Final residual = 0.0390818, No Iterations 1
GAMG:  Solving for p, Initial residual = 0.139049, Final residual = 5.7908e-07, No Iterations 15
time step continuity errors : sum local = 1.36932e-11, global = 5.7329e-12, cumulative = 7.49596e-11
ExecutionTime = 0.639129 s  ClockTime = 0 s

Courant Number mean: 0.0241723 max: 0.0842361
Time = 4.4s

DILUPBiCGStab:  Solving for Ux, Initial residual = 0.00907211, Final residual = 7.75913e-06, No Iterations 2
DILUPBiCGStab:  Solving for Uy, Initial residual = 0.0149768, Final residual = 6.51319e-06, No Iterations 2
GAMG:  Solving for p, Initial residual = 0.777282, Final residual = 0.0594752, No Iterations 1
GAMG:  Solving for p, Initial residual = 0.100751, Final residual = 0.00827407, No Iterations 2
time step continuity errors : sum local = 4.23495e-07, global = -5.7031e-09
GAMG:  Solving for p, Initial residual = 0.492096, Final residual = 0.0409496, No Iterations 1
GAMG:  Solving for p, Initial residual = 0.149323, Final residual = 6.15958e-07, No Iterations 15
time step continuity errors : sum local = 1.33021e-11, global = -5.56052e-12, cumulative = 6.93991e-11
ExecutionTime = 0.650104 s  ClockTime = 0 s

Courant Number mean: 0.0241653 max: 0.0838147
Time = 4.5s

DILUPBiCGStab:  Solving for Ux, Initial residual = 0.00915354, Final residual = 6.8001e-06, No Iterations 2
DILUPBiCGStab:  Solving for Uy, Initial residual = 0.019312, Final residual = 6.78268e-06, No Iterations 2
GAMG:  Solving for p, Initial residual = 0.810842, Final residual = 0.0619544, No Iterations 1
GAMG:  Solving for p, Initial residual = 0.104036, Final residual = 0.00857571, No Iterations 2
time step continuity errors : sum local = 4.17789e-07, global = 6.18997e-09
GAMG:  Solving for p, Initial residual = 0.46585, Final residual = 0.0387839, No Iterations 1
GAMG:  Solving for p, Initial residual = 0.137359, Final residual = 5.82906e-07, No Iterations 15
time step continuity errors : sum local = 1.34651e-11, global = 5.68384e-12, cumulative = 7.50829e-11
ExecutionTime = 0.661043 s  ClockTime = 0 s

Courant Number mean: 0.0241627 max: 0.0833759
Time = 4.6s

DILUPBiCGStab:  Solving for Ux, Initial residual = 0.00861777, Final residual = 7.32732e-06, No Iterations 2
DILUPBiCGStab:  Solving for Uy, Initial residual = 0.0142834, Final residual = 6.16467e-06, No Iterations 2
GAMG:  Solving for p, Initial residual = 0.768529, Final residual = 0.0588548, No Iterations 1
GAMG:  Solving for p, Initial residual = 0.100122, Final residual = 0.00821398, No Iterations 2
time step continuity errors : sum local = 4.08523e-07, global = -5.93748e-09
GAMG:  Solving for p, Initial residual = 0.493843, Final residual = 0.041124, No Iterations 1
GAMG:  Solving for p, Initial residual = 0.15045, Final residual = 6.33072e-07, No Iterations 15
time step continuity errors : sum local = 1.30971e-11, global = -5.52587e-12, cumulative = 6.95571e-11
ExecutionTime = 0.671766 s  ClockTime = 0 s

Courant Number mean: 0.0241558 max: 0.0829925
Time = 4.7s

DILUPBiCGStab:  Solving for Ux, Initial residual = 0.00868965, Final residual = 6.4404e-06, No Iterations 2
DILUPBiCGStab:  Solving for Uy, Initial residual = 0.0184161, Final residual = 6.41812e-06, No Iterations 2
GAMG:  Solving for p, Initial residual = 0.810918, Final residual = 0.0620175, No Iterations 1
GAMG:  Solving for p, Initial residual = 0.104267, Final residual = 0.00858451, No Iterations 2
time step continuity errors : sum local = 4.03014e-07, global = 6.39157e-09
GAMG:  Solving for p, Initial residual = 0.46196, Final residual = 0.0384867, No Iterations 1
GAMG:  Solving for p, Initial residual = 0.135681, Final residual = 5.83469e-07, No Iterations 15
time step continuity errors : sum local = 1.31709e-11, global = 5.5588e-12, cumulative = 7.51159e-11
ExecutionTime = 0.682511 s  ClockTime = 0 s

Courant Number mean: 0.0241531 max: 0.0825737
Time = 4.8s

DILUPBiCGStab:  Solving for Ux, Initial residual = 0.00819692, Final residual = 6.92763e-06, No Iterations 2
DILUPBiCGStab:  Solving for Uy, Initial residual = 0.0136334, Final residual = 5.83973e-06, No Iterations 2
GAMG:  Solving for p, Initial residual = 0.75983, Final residual = 0.0582423, No Iterations 1
GAMG:  Solving for p, Initial residual = 0.0994929, Final residual = 0.00815352, No Iterations 2
time step continuity errors : sum local = 3.94169e-07, global = -6.1414e-09
GAMG:  Solving for p, Initial residual = 0.495603, Final residual = 0.0413001, No Iterations 1
GAMG:  Solving for p, Initial residual = 0.151597, Final residual = 6.46507e-07, No Iterations 15
time step continuity errors : sum local = 1.28147e-11, global = -5.40264e-12, cumulative = 6.97132e-11
ExecutionTime = 0.693249 s  ClockTime = 0 s

Courant Number mean: 0.0241462 max: 0.0822064
Time = 4.9s

DILUPBiCGStab:  Solving for Ux, Initial residual = 0.00825876, Final residual = 6.10526e-06, No Iterations 2
DILUPBiCGStab:  Solving for Uy, Initial residual = 0.0175773, Final residual = 6.0789e-06, No Iterations 2
GAMG:  Solving for p, Initial residual = 0.811084, Final residual = 0.0620903, No Iterations 1
GAMG:  Solving for p, Initial residual = 0.104509, Final residual = 0.0085941, No Iterations 2
time step continuity errors : sum local = 3.88856e-07, global = 6.56879e-09
GAMG:  Solving for p, Initial residual = 0.458018, Final residual = 0.0381851, No Iterations 1
GAMG:  Solving for p, Initial residual = 0.13399, Final residual = 5.80984e-07, No Iterations 15
time step continuity errors : sum local = 1.28219e-11, global = 5.36084e-12, cumulative = 7.50741e-11
ExecutionTime = 0.704016 s  ClockTime = 0 s

Courant Number mean: 0.0241434 max: 0.0818064
Time = 5s

DILUPBiCGStab:  Solving for Ux, Initial residual = 0.00780666, Final residual = 6.5562e-06, No Iterations 2
DILUPBiCGStab:  Solving for Uy, Initial residual = 0.0130242, Final residual = 5.53645e-06, No Iterations 2
GAMG:  Solving for p, Initial residual = 0.751172, Final residual = 0.0576324, No Iterations 1
GAMG:  Solving for p, Initial residual = 0.0988499, Final residual = 0.00809222, No Iterations 2
time step continuity errors : sum local = 3.80426e-07, global = -6.31844e-09
GAMG:  Solving for p, Initial residual = 0.497415, Final residual = 0.0414808, No Iterations 1
GAMG:  Solving for p, Initial residual = 0.152765, Final residual = 6.57114e-07, No Iterations 15
time step continuity errors : sum local = 1.24818e-11, global = -5.21631e-12, cumulative = 6.98578e-11
ExecutionTime = 0.714811 s  ClockTime = 0 s

forceCoeffs forceCoeffs write:
    Cm    = 0.00176194
    Cd    = -16.2939
    Cl    = -0.728462
    Cl(f) = -0.362469
    Cl(r) = -0.365993

Courant Number mean: 0.0241366 max: 0.0814539
Time = 5.1s

DILUPBiCGStab:  Solving for Ux, Initial residual = 0.0078588, Final residual = 5.79367e-06, No Iterations 2
DILUPBiCGStab:  Solving for Uy, Initial residual = 0.0167917, Final residual = 5.76258e-06, No Iterations 2
GAMG:  Solving for p, Initial residual = 0.81137, Final residual = 0.0621722, No Iterations 1
GAMG:  Solving for p, Initial residual = 0.104762, Final residual = 0.00860494, No Iterations 2
time step continuity errors : sum local = 3.75319e-07, global = 6.7217e-09
GAMG:  Solving for p, Initial residual = 0.454005, Final residual = 0.0378771, No Iterations 1
GAMG:  Solving for p, Initial residual = 0.132277, Final residual = 5.76202e-07, No Iterations 15
time step continuity errors : sum local = 1.24402e-11, global = 5.10376e-12, cumulative = 7.49615e-11
ExecutionTime = 0.725734 s  ClockTime = 0 s

Courant Number mean: 0.0241337 max: 0.0810714
Time = 5.2s

DILUPBiCGStab:  Solving for Ux, Initial residual = 0.00744514, Final residual = 6.21296e-06, No Iterations 2
DILUPBiCGStab:  Solving for Uy, Initial residual = 0.0124534, Final residual = 5.25357e-06, No Iterations 2
GAMG:  Solving for p, Initial residual = 0.742519, Final residual = 0.0570245, No Iterations 1
GAMG:  Solving for p, Initial residual = 0.0981915, Final residual = 0.00803008, No Iterations 2
time step continuity errors : sum local = 3.67284e-07, global = -6.46861e-09
GAMG:  Solving for p, Initial residual = 0.499325, Final residual = 0.0416719, No Iterations 1
GAMG:  Solving for p, Initial residual = 0.152364, Final residual = 6.58454e-07, No Iterations 15
time step continuity errors : sum local = 1.21135e-11, global = -4.97891e-12, cumulative = 6.99826e-11
ExecutionTime = 0.736512 s  ClockTime = 0 s

Courant Number mean: 0.0241269 max: 0.0807329
Time = 5.3s

DILUPBiCGStab:  Solving for Ux, Initial residual = 0.0074863, Final residual = 5.5021e-06, No Iterations 2
DILUPBiCGStab:  Solving for Uy, Initial residual = 0.016055, Final residual = 5.46742e-06, No Iterations 2
GAMG:  Solving for p, Initial residual = 0.811848, Final residual = 0.0622749, No Iterations 1
GAMG:  Solving for p, Initial residual = 0.105037, Final residual = 0.00861819, No Iterations 2
time step continuity errors : sum local = 3.62387e-07, global = 6.84833e-09
GAMG:  Solving for p, Initial residual = 0.449903, Final residual = 0.0375639, No Iterations 1
GAMG:  Solving for p, Initial residual = 0.130539, Final residual = 5.70706e-07, No Iterations 15
time step continuity errors : sum local = 1.20621e-11, global = 4.82061e-12, cumulative = 7.48032e-11
ExecutionTime = 0.747238 s  ClockTime = 0 s

Courant Number mean: 0.0241239 max: 0.0803666
Time = 5.4s

DILUPBiCGStab:  Solving for Ux, Initial residual = 0.00710956, Final residual = 5.89385e-06, No Iterations 2
DILUPBiCGStab:  Solving for Uy, Initial residual = 0.0119179, Final residual = 4.98886e-06, No Iterations 2
GAMG:  Solving for p, Initial residual = 0.73385, Final residual = 0.0564198, No Iterations 1
GAMG:  Solving for p, Initial residual = 0.0975265, Final residual = 0.00796791, No Iterations 2
time step continuity errors : sum local = 3.54723e-07, global = -6.59096e-09
GAMG:  Solving for p, Initial residual = 0.501358, Final residual = 0.0418763, No Iterations 1
GAMG:  Solving for p, Initial residual = 0.14968, Final residual = 6.49382e-07, No Iterations 15
time step continuity errors : sum local = 1.17505e-11, global = -4.70641e-12, cumulative = 7.00968e-11
ExecutionTime = 0.758134 s  ClockTime = 0 s

Courant Number mean: 0.0241171 max: 0.080041
Time = 5.5s

DILUPBiCGStab:  Solving for Ux, Initial residual = 0.0071391, Final residual = 5.2294e-06, No Iterations 2
DILUPBiCGStab:  Solving for Uy, Initial residual = 0.0153633, Final residual = 5.19147e-06, No Iterations 2
GAMG:  Solving for p, Initial residual = 0.812561, Final residual = 0.0624018, No Iterations 1
GAMG:  Solving for p, Initial residual = 0.10534, Final residual = 0.00863365, No Iterations 2
time step continuity errors : sum local = 3.50012e-07, global = 6.95285e-09
GAMG:  Solving for p, Initial residual = 0.445722, Final residual = 0.0372442, No Iterations 1
GAMG:  Solving for p, Initial residual = 0.128765, Final residual = 5.64987e-07, No Iterations 15
time step continuity errors : sum local = 1.16985e-11, global = 4.51201e-12, cumulative = 7.46088e-11
ExecutionTime = 0.768892 s  ClockTime = 0 s

Courant Number mean: 0.024114 max: 0.07969
Time = 5.6s

DILUPBiCGStab:  Solving for Ux, Initial residual = 0.00679815, Final residual = 5.59643e-06, No Iterations 2
DILUPBiCGStab:  Solving for Uy, Initial residual = 0.011415, Final residual = 4.74069e-06, No Iterations 2
GAMG:  Solving for p, Initial residual = 0.725141, Final residual = 0.0558157, No Iterations 1
GAMG:  Solving for p, Initial residual = 0.0968531, Final residual = 0.00790513, No Iterations 2
time step continuity errors : sum local = 3.42694e-07, global = -6.69138e-09
GAMG:  Solving for p, Initial residual = 0.503534, Final residual = 0.042092, No Iterations 1
GAMG:  Solving for p, Initial residual = 0.146981, Final residual = 6.39708e-07, No Iterations 15
time step continuity errors : sum local = 1.13933e-11, global = -4.41778e-12, cumulative = 7.0191e-11
ExecutionTime = 0.779732 s  ClockTime = 0 s

Courant Number mean: 0.0241073 max: 0.0793765
Time = 5.7s

DILUPBiCGStab:  Solving for Ux, Initial residual = 0.00681534, Final residual = 4.97414e-06, No Iterations 2
DILUPBiCGStab:  Solving for Uy, Initial residual = 0.0147129, Final residual = 4.9331e-06, No Iterations 2
GAMG:  Solving for p, Initial residual = 0.813474, Final residual = 0.0625469, No Iterations 1
GAMG:  Solving for p, Initial residual = 0.10507, Final residual = 0.00860248, No Iterations 2
time step continuity errors : sum local = 3.38165e-07, global = 7.03573e-09
GAMG:  Solving for p, Initial residual = 0.441445, Final residual = 0.0369166, No Iterations 1
GAMG:  Solving for p, Initial residual = 0.126954, Final residual = 5.60063e-07, No Iterations 15
time step continuity errors : sum local = 1.13692e-11, global = 4.1969e-12, cumulative = 7.43879e-11
ExecutionTime = 0.790689 s  ClockTime = 0 s

Courant Number mean: 0.0241041 max: 0.0790397
Time = 5.8s

DILUPBiCGStab:  Solving for Ux, Initial residual = 0.00651036, Final residual = 5.31815e-06, No Iterations 2
DILUPBiCGStab:  Solving for Uy, Initial residual = 0.0109423, Final residual = 4.50791e-06, No Iterations 2
GAMG:  Solving for p, Initial residual = 0.716327, Final residual = 0.0552037, No Iterations 1
GAMG:  Solving for p, Initial residual = 0.0961634, Final residual = 0.00784154, No Iterations 2
time step continuity errors : sum local = 3.31185e-07, global = -6.77047e-09
GAMG:  Solving for p, Initial residual = 0.505115, Final residual = 0.0422588, No Iterations 1
GAMG:  Solving for p, Initial residual = 0.144263, Final residual = 6.31033e-07, No Iterations 15
time step continuity errors : sum local = 1.10699e-11, global = -4.11593e-12, cumulative = 7.0272e-11
ExecutionTime = 0.801618 s  ClockTime = 0 s

Courant Number mean: 0.0240974 max: 0.0787375
Time = 5.9s

DILUPBiCGStab:  Solving for Ux, Initial residual = 0.00651331, Final residual = 4.73574e-06, No Iterations 2
DILUPBiCGStab:  Solving for Uy, Initial residual = 0.0141007, Final residual = 4.69115e-06, No Iterations 2
GAMG:  Solving for p, Initial residual = 0.814623, Final residual = 0.062713, No Iterations 1
GAMG:  Solving for p, Initial residual = 0.104454, Final residual = 0.00854357, No Iterations 2
time step continuity errors : sum local = 3.26845e-07, global = 7.10159e-09
GAMG:  Solving for p, Initial residual = 0.437081, Final residual = 0.0365802, No Iterations 1
GAMG:  Solving for p, Initial residual = 0.125113, Final residual = 5.57002e-07, No Iterations 15
time step continuity errors : sum local = 1.10935e-11, global = 3.88637e-12, cumulative = 7.41584e-11
ExecutionTime = 0.812393 s  ClockTime = 1 s

Courant Number mean: 0.0240941 max: 0.078414
Time = 6s

DILUPBiCGStab:  Solving for Ux, Initial residual = 0.00624616, Final residual = 5.05942e-06, No Iterations 2
DILUPBiCGStab:  Solving for Uy, Initial residual = 0.0104978, Final residual = 4.29024e-06, No Iterations 2
GAMG:  Solving for p, Initial residual = 0.707487, Final residual = 0.0545917, No Iterations 1
GAMG:  Solving for p, Initial residual = 0.0954625, Final residual = 0.00777742, No Iterations 2
time step continuity errors : sum local = 3.20176e-07, global = -6.83166e-09
GAMG:  Solving for p, Initial residual = 0.499568, Final residual = 0.0418294, No Iterations 1
GAMG:  Solving for p, Initial residual = 0.141553, Final residual = 6.24258e-07, No Iterations 15
time step continuity errors : sum local = 1.0793e-11, global = -3.82098e-12, cumulative = 7.03374e-11
ExecutionTime = 0.823145 s  ClockTime = 1 s

forceCoeffs forceCoeffs write:
    Cm    = 0.00145572
    Cd    = -11.2045
    Cl    = -0.747083
    Cl(f) = -0.372086
    Cl(r) = -0.374997

Courant Number mean: 0.0240874 max: 0.0781224
Time = 6.1s

DILUPBiCGStab:  Solving for Ux, Initial residual = 0.00623081, Final residual = 4.51205e-06, No Iterations 2
DILUPBiCGStab:  Solving for Uy, Initial residual = 0.013524, Final residual = 4.46426e-06, No Iterations 2
GAMG:  Solving for p, Initial residual = 0.816028, Final residual = 0.062904, No Iterations 1
GAMG:  Solving for p, Initial residual = 0.103814, Final residual = 0.00848303, No Iterations 2
time step continuity errors : sum local = 3.16005e-07, global = 7.14821e-09
GAMG:  Solving for p, Initial residual = 0.432604, Final residual = 0.0362354, No Iterations 1
GAMG:  Solving for p, Initial residual = 0.123241, Final residual = 5.56328e-07, No Iterations 15
time step continuity errors : sum local = 1.08789e-11, global = 3.58866e-12, cumulative = 7.39261e-11
ExecutionTime = 0.834115 s  ClockTime = 1 s

Courant Number mean: 0.0240841 max: 0.0778114
Time = 6.2s

DILUPBiCGStab:  Solving for Ux, Initial residual = 0.0060069, Final residual = 4.81771e-06, No Iterations 2
DILUPBiCGStab:  Solving for Uy, Initial residual = 0.0100791, Final residual = 4.0855e-06, No Iterations 2
GAMG:  Solving for p, Initial residual = 0.698639, Final residual = 0.0539828, No Iterations 1
GAMG:  Solving for p, Initial residual = 0.0947526, Final residual = 0.00771271, No Iterations 2
time step continuity errors : sum local = 3.09623e-07, global = -6.87646e-09
GAMG:  Solving for p, Initial residual = 0.493902, Final residual = 0.0413899, No Iterations 1
GAMG:  Solving for p, Initial residual = 0.138853, Final residual = 6.19905e-07, No Iterations 15
time step continuity errors : sum local = 1.05688e-11, global = -3.53758e-12, cumulative = 7.03885e-11
ExecutionTime = 0.84508 s  ClockTime = 1 s

Courant Number mean: 0.0240774 max: 0.0775298
Time = 6.3s

DILUPBiCGStab:  Solving for Ux, Initial residual = 0.00596636, Final residual = 4.3018e-06, No Iterations 2
DILUPBiCGStab:  Solving for Uy, Initial residual = 0.0129798, Final residual = 4.25107e-06, No Iterations 2
GAMG:  Solving for p, Initial residual = 0.817728, Final residual = 0.0631228, No Iterations 1
GAMG:  Solving for p, Initial residual = 0.103145, Final residual = 0.00842061, No Iterations 2
time step continuity errors : sum local = 3.0561e-07, global = 7.17722e-09
GAMG:  Solving for p, Initial residual = 0.428029, Final residual = 0.0358827, No Iterations 1
GAMG:  Solving for p, Initial residual = 0.121338, Final residual = 5.58863e-07, No Iterations 15
time step continuity errors : sum local = 1.07377e-11, global = 3.31158e-12, cumulative = 7.37e-11
ExecutionTime = 0.855922 s  ClockTime = 1 s

Courant Number mean: 0.0240739 max: 0.0772304
Time = 6.4s

DILUPBiCGStab:  Solving for Ux, Initial residual = 0.00579173, Final residual = 4.59093e-06, No Iterations 2
DILUPBiCGStab:  Solving for Uy, Initial residual = 0.00968432, Final residual = 3.89311e-06, No Iterations 2
GAMG:  Solving for p, Initial residual = 0.689763, Final residual = 0.0533723, No Iterations 1
GAMG:  Solving for p, Initial residual = 0.0940301, Final residual = 0.00764755, No Iterations 2
time step continuity errors : sum local = 2.99503e-07, global = -6.90484e-09
GAMG:  Solving for p, Initial residual = 0.488127, Final residual = 0.0409415, No Iterations 1
GAMG:  Solving for p, Initial residual = 0.136161, Final residual = 6.18683e-07, No Iterations 15
time step continuity errors : sum local = 1.04071e-11, global = -3.27092e-12, cumulative = 7.04291e-11
ExecutionTime = 0.866683 s  ClockTime = 1 s

Courant Number mean: 0.0240673 max: 0.0769643
Time = 6.5s

DILUPBiCGStab:  Solving for Ux, Initial residual = 0.00571854, Final residual = 4.10407e-06, No Iterations 2
DILUPBiCGStab:  Solving for Uy, Initial residual = 0.0124659, Final residual = 4.05064e-06, No Iterations 2
GAMG:  Solving for p, Initial residual = 0.819719, Final residual = 0.0633678, No Iterations 1
GAMG:  Solving for p, Initial residual = 0.102443, Final residual = 0.00835604, No Iterations 2
time step continuity errors : sum local = 2.95646e-07, global = 7.19555e-09
GAMG:  Solving for p, Initial residual = 0.423324, Final residual = 0.0355187, No Iterations 1
GAMG:  Solving for p, Initial residual = 0.119411, Final residual = 5.64816e-07, No Iterations 15
time step continuity errors : sum local = 1.06701e-11, global = 3.05619e-12, cumulative = 7.34853e-11
ExecutionTime = 0.877437 s  ClockTime = 1 s

Courant Number mean: 0.0240638 max: 0.0766698
Time = 6.6s

DILUPBiCGStab:  Solving for Ux, Initial residual = 0.00558961, Final residual = 4.3788e-06, No Iterations 2
DILUPBiCGStab:  Solving for Uy, Initial residual = 0.00931188, Final residual = 3.71221e-06, No Iterations 2
GAMG:  Solving for p, Initial residual = 0.680841, Final residual = 0.0527584, No Iterations 1
GAMG:  Solving for p, Initial residual = 0.0932989, Final residual = 0.00758197, No Iterations 2
time step continuity errors : sum local = 2.89793e-07, global = -6.91788e-09
GAMG:  Solving for p, Initial residual = 0.482254, Final residual = 0.0404864, No Iterations 1
GAMG:  Solving for p, Initial residual = 0.133473, Final residual = 6.21101e-07, No Iterations 15
time step continuity errors : sum local = 1.03143e-11, global = -3.02503e-12, cumulative = 7.04603e-11
ExecutionTime = 0.8882 s  ClockTime = 1 s

Courant Number mean: 0.0240572 max: 0.0764272
Time = 6.7s

DILUPBiCGStab:  Solving for Ux, Initial residual = 0.00548575, Final residual = 3.9176e-06, No Iterations 2
DILUPBiCGStab:  Solving for Uy, Initial residual = 0.01198, Final residual = 3.86192e-06, No Iterations 2
GAMG:  Solving for p, Initial residual = 0.821973, Final residual = 0.0636356, No Iterations 1
GAMG:  Solving for p, Initial residual = 0.101716, Final residual = 0.00828996, No Iterations 2
time step continuity errors : sum local = 2.86088e-07, global = 7.20318e-09
GAMG:  Solving for p, Initial residual = 0.418521, Final residual = 0.035148, No Iterations 1
GAMG:  Solving for p, Initial residual = 0.117459, Final residual = 5.73391e-07, No Iterations 15
time step continuity errors : sum local = 1.06578e-11, global = 2.82386e-12, cumulative = 7.32842e-11
ExecutionTime = 0.8991 s  ClockTime = 1 s

Courant Number mean: 0.0240535 max: 0.0761284
Time = 6.8s

DILUPBiCGStab:  Solving for Ux, Initial residual = 0.00539884, Final residual = 4.17859e-06, No Iterations 2
DILUPBiCGStab:  Solving for Uy, Initial residual = 0.00895984, Final residual = 3.54148e-06, No Iterations 2
GAMG:  Solving for p, Initial residual = 0.67188, Final residual = 0.0521402, No Iterations 1
GAMG:  Solving for p, Initial residual = 0.0925496, Final residual = 0.0075156, No Iterations 2
time step continuity errors : sum local = 2.8048e-07, global = -6.923e-09
GAMG:  Solving for p, Initial residual = 0.476282, Final residual = 0.0400215, No Iterations 1
GAMG:  Solving for p, Initial residual = 0.130787, Final residual = 6.26482e-07, No Iterations 15
time step continuity errors : sum local = 1.02772e-11, global = -2.80067e-12, cumulative = 7.04835e-11
ExecutionTime = 0.909827 s  ClockTime = 1 s

Courant Number mean: 0.024047 max: 0.075908
Time = 6.9s

DILUPBiCGStab:  Solving for Ux, Initial residual = 0.00526716, Final residual = 3.74211e-06, No Iterations 2
DILUPBiCGStab:  Solving for Uy, Initial residual = 0.01152, Final residual = 3.68421e-06, No Iterations 2
GAMG:  Solving for p, Initial residual = 0.824534, Final residual = 0.063928, No Iterations 1
GAMG:  Solving for p, Initial residual = 0.100958, Final residual = 0.00822199, No Iterations 2
time step continuity errors : sum local = 2.76914e-07, global = 7.19519e-09
GAMG:  Solving for p, Initial residual = 0.413635, Final residual = 0.0347687, No Iterations 1
GAMG:  Solving for p, Initial residual = 0.11549, Final residual = 5.82716e-07, No Iterations 15
time step continuity errors : sum local = 1.06639e-11, global = 2.61895e-12, cumulative = 7.31024e-11
ExecutionTime = 0.920576 s  ClockTime = 1 s

Courant Number mean: 0.0240432 max: 0.075605
Time = 7s

DILUPBiCGStab:  Solving for Ux, Initial residual = 0.00521882, Final residual = 3.99027e-06, No Iterations 2
DILUPBiCGStab:  Solving for Uy, Initial residual = 0.00862735, Final residual = 3.38068e-06, No Iterations 2
GAMG:  Solving for p, Initial residual = 0.662892, Final residual = 0.0515175, No Iterations 1
GAMG:  Solving for p, Initial residual = 0.0917814, Final residual = 0.00744839, No Iterations 2
time step continuity errors : sum local = 2.71545e-07, global = -6.9185e-09
GAMG:  Solving for p, Initial residual = 0.470195, Final residual = 0.0395461, No Iterations 1
GAMG:  Solving for p, Initial residual = 0.128105, Final residual = 6.33266e-07, No Iterations 15
time step continuity errors : sum local = 1.02685e-11, global = -2.59755e-12, cumulative = 7.05049e-11
ExecutionTime = 0.93157 s  ClockTime = 1 s

forceCoeffs forceCoeffs write:
    Cm    = 0.00120289
    Cd    = -7.00079
    Cl    = -0.730514
    Cl(f) = -0.364054
    Cl(r) = -0.36646

Courant Number mean: 0.0240367 max: 0.0754057
Time = 7.1s

DILUPBiCGStab:  Solving for Ux, Initial residual = 0.00506198, Final residual = 3.57672e-06, No Iterations 2
DILUPBiCGStab:  Solving for Uy, Initial residual = 0.0110843, Final residual = 3.51689e-06, No Iterations 2
GAMG:  Solving for p, Initial residual = 0.827401, Final residual = 0.0642447, No Iterations 1
GAMG:  Solving for p, Initial residual = 0.100173, Final residual = 0.00815261, No Iterations 2
time step continuity errors : sum local = 2.68116e-07, global = 7.18005e-09
GAMG:  Solving for p, Initial residual = 0.408679, Final residual = 0.0343832, No Iterations 1
GAMG:  Solving for p, Initial residual = 0.113503, Final residual = 5.92267e-07, No Iterations 15
time step continuity errors : sum local = 1.06786e-11, global = 2.4343e-12, cumulative = 7.29392e-11
ExecutionTime = 0.942559 s  ClockTime = 1 s

Courant Number mean: 0.0240329 max: 0.0751042
Time = 7.2s

DILUPBiCGStab:  Solving for Ux, Initial residual = 0.00504877, Final residual = 3.81297e-06, No Iterations 2
DILUPBiCGStab:  Solving for Uy, Initial residual = 0.00831288, Final residual = 3.22913e-06, No Iterations 2
GAMG:  Solving for p, Initial residual = 0.653864, Final residual = 0.0508906, No Iterations 1
GAMG:  Solving for p, Initial residual = 0.0909987, Final residual = 0.00738037, No Iterations 2
time step continuity errors : sum local = 2.62965e-07, global = -6.899e-09
GAMG:  Solving for p, Initial residual = 0.464009, Final residual = 0.0390623, No Iterations 1
GAMG:  Solving for p, Initial residual = 0.125436, Final residual = 6.40089e-07, No Iterations 15
time step continuity errors : sum local = 1.02653e-11, global = -2.41923e-12, cumulative = 7.05199e-11
ExecutionTime = 0.953592 s  ClockTime = 1 s

Courant Number mean: 0.0240263 max: 0.0749193
Time = 7.3s

DILUPBiCGStab:  Solving for Ux, Initial residual = 0.0048691, Final residual = 3.42064e-06, No Iterations 2
DILUPBiCGStab:  Solving for Uy, Initial residual = 0.0106712, Final residual = 3.3592e-06, No Iterations 2
GAMG:  Solving for p, Initial residual = 0.830573, Final residual = 0.0645875, No Iterations 1
GAMG:  Solving for p, Initial residual = 0.0993587, Final residual = 0.00808106, No Iterations 2
time step continuity errors : sum local = 2.59663e-07, global = 7.15169e-09
GAMG:  Solving for p, Initial residual = 0.40365, Final residual = 0.0339908, No Iterations 1
GAMG:  Solving for p, Initial residual = 0.111504, Final residual = 6.00748e-07, No Iterations 15
time step continuity errors : sum local = 1.06787e-11, global = 2.27594e-12, cumulative = 7.27959e-11
ExecutionTime = 0.964343 s  ClockTime = 1 s

Courant Number mean: 0.0240224 max: 0.0746282
Time = 7.4s

DILUPBiCGStab:  Solving for Ux, Initial residual = 0.00488804, Final residual = 3.64596e-06, No Iterations 2
DILUPBiCGStab:  Solving for Uy, Initial residual = 0.00801552, Final residual = 3.08622e-06, No Iterations 2
GAMG:  Solving for p, Initial residual = 0.644813, Final residual = 0.0502605, No Iterations 1
GAMG:  Solving for p, Initial residual = 0.0902006, Final residual = 0.00731137, No Iterations 2
time step continuity errors : sum local = 2.54724e-07, global = -6.87224e-09
GAMG:  Solving for p, Initial residual = 0.457749, Final residual = 0.0385713, No Iterations 1
GAMG:  Solving for p, Initial residual = 0.122789, Final residual = 6.46487e-07, No Iterations 15
time step continuity errors : sum local = 1.02597e-11, global = -2.25984e-12, cumulative = 7.05361e-11
ExecutionTime = 0.975118 s  ClockTime = 1 s

Courant Number mean: 0.0240159 max: 0.0744479
Time = 7.5s

DILUPBiCGStab:  Solving for Ux, Initial residual = 0.00468789, Final residual = 3.27322e-06, No Iterations 2
DILUPBiCGStab:  Solving for Uy, Initial residual = 0.0102796, Final residual = 3.21036e-06, No Iterations 2
GAMG:  Solving for p, Initial residual = 0.826667, Final residual = 0.0643791, No Iterations 1
GAMG:  Solving for p, Initial residual = 0.0985164, Final residual = 0.00800796, No Iterations 2
time step continuity errors : sum local = 2.51555e-07, global = 7.12052e-09
GAMG:  Solving for p, Initial residual = 0.398562, Final residual = 0.033593, No Iterations 1
GAMG:  Solving for p, Initial residual = 0.109498, Final residual = 6.08614e-07, No Iterations 15
time step continuity errors : sum local = 1.06729e-11, global = 2.13291e-12, cumulative = 7.2669e-11
ExecutionTime = 0.985871 s  ClockTime = 1 s

Courant Number mean: 0.0240119 max: 0.0741668
Time = 7.6s

DILUPBiCGStab:  Solving for Ux, Initial residual = 0.00473601, Final residual = 3.48865e-06, No Iterations 2
DILUPBiCGStab:  Solving for Uy, Initial residual = 0.00773385, Final residual = 2.95127e-06, No Iterations 2
GAMG:  Solving for p, Initial residual = 0.635753, Final residual = 0.0496285, No Iterations 1
GAMG:  Solving for p, Initial residual = 0.0893834, Final residual = 0.00724152, No Iterations 2
time step continuity errors : sum local = 2.46818e-07, global = -6.84088e-09
GAMG:  Solving for p, Initial residual = 0.451396, Final residual = 0.0380714, No Iterations 1
GAMG:  Solving for p, Initial residual = 0.120159, Final residual = 6.52239e-07, No Iterations 15
time step continuity errors : sum local = 1.0249e-11, global = -2.11846e-12, cumulative = 7.05505e-11
ExecutionTime = 0.996596 s  ClockTime = 1 s

Courant Number mean: 0.0240054 max: 0.0739909
Time = 7.7s

DILUPBiCGStab:  Solving for Ux, Initial residual = 0.00451725, Final residual = 3.1339e-06, No Iterations 2
DILUPBiCGStab:  Solving for Uy, Initial residual = 0.00990784, Final residual = 3.06986e-06, No Iterations 2
GAMG:  Solving for p, Initial residual = 0.815573, Final residual = 0.0636112, No Iterations 1
GAMG:  Solving for p, Initial residual = 0.0976491, Final residual = 0.00793328, No Iterations 2
time step continuity errors : sum local = 2.43769e-07, global = 7.07632e-09
GAMG:  Solving for p, Initial residual = 0.393411, Final residual = 0.0331894, No Iterations 1
GAMG:  Solving for p, Initial residual = 0.107489, Final residual = 6.14464e-07, No Iterations 15
time step continuity errors : sum local = 1.06372e-11, global = 2.01231e-12, cumulative = 7.25628e-11
ExecutionTime = 1.00743 s  ClockTime = 1 s

Courant Number mean: 0.0240013 max: 0.0737191
Time = 7.8s

DILUPBiCGStab:  Solving for Ux, Initial residual = 0.00459211, Final residual = 3.34013e-06, No Iterations 2
DILUPBiCGStab:  Solving for Uy, Initial residual = 0.00746701, Final residual = 2.82378e-06, No Iterations 2
GAMG:  Solving for p, Initial residual = 0.626669, Final residual = 0.0489934, No Iterations 1
GAMG:  Solving for p, Initial residual = 0.0885502, Final residual = 0.00717047, No Iterations 2
time step continuity errors : sum local = 2.39219e-07, global = -6.79778e-09
GAMG:  Solving for p, Initial residual = 0.444953, Final residual = 0.0375636, No Iterations 1
GAMG:  Solving for p, Initial residual = 0.117545, Final residual = 6.56222e-07, No Iterations 15
time step continuity errors : sum local = 1.0216e-11, global = -1.99599e-12, cumulative = 7.05668e-11
ExecutionTime = 1.01827 s  ClockTime = 1 s

Courant Number mean: 0.0239948 max: 0.0735475
Time = 7.9s

DILUPBiCGStab:  Solving for Ux, Initial residual = 0.00435645, Final residual = 3.00217e-06, No Iterations 2
DILUPBiCGStab:  Solving for Uy, Initial residual = 0.00955478, Final residual = 2.93707e-06, No Iterations 2
GAMG:  Solving for p, Initial residual = 0.804233, Final residual = 0.0628222, No Iterations 1
GAMG:  Solving for p, Initial residual = 0.0967608, Final residual = 0.00785702, No Iterations 2
time step continuity errors : sum local = 2.36284e-07, global = 7.03209e-09
GAMG:  Solving for p, Initial residual = 0.388206, Final residual = 0.0327807, No Iterations 1
GAMG:  Solving for p, Initial residual = 0.105477, Final residual = 9.91489e-07, No Iterations 14
time step continuity errors : sum local = 1.69541e-11, global = 6.43644e-12, cumulative = 7.70033e-11
ExecutionTime = 1.0287 s  ClockTime = 1 s

Courant Number mean: 0.0239907 max: 0.0732846
Time = 8s

DILUPBiCGStab:  Solving for Ux, Initial residual = 0.0044557, Final residual = 3.19985e-06, No Iterations 2
DILUPBiCGStab:  Solving for Uy, Initial residual = 0.00721372, Final residual = 2.70314e-06, No Iterations 2
GAMG:  Solving for p, Initial residual = 0.617609, Final residual = 0.0483586, No Iterations 1
GAMG:  Solving for p, Initial residual = 0.087706, Final residual = 0.00709894, No Iterations 2
time step continuity errors : sum local = 2.31919e-07, global = -6.74545e-09
GAMG:  Solving for p, Initial residual = 0.438453, Final residual = 0.0370502, No Iterations 1
GAMG:  Solving for p, Initial residual = 0.114961, Final residual = 6.58514e-07, No Iterations 15
time step continuity errors : sum local = 1.01617e-11, global = -1.8867e-12, cumulative = 7.51166e-11
ExecutionTime = 1.03946 s  ClockTime = 1 s

forceCoeffs forceCoeffs write:
    Cm    = 0.00100079
    Cd    = -3.55043
    Cl    = -0.69417
    Cl(f) = -0.346084
    Cl(r) = -0.348086

Courant Number mean: 0.0239842 max: 0.0731169
Time = 8.1s

DILUPBiCGStab:  Solving for Ux, Initial residual = 0.00420508, Final residual = 2.87762e-06, No Iterations 2
DILUPBiCGStab:  Solving for Uy, Initial residual = 0.00921916, Final residual = 2.81168e-06, No Iterations 2
GAMG:  Solving for p, Initial residual = 0.792602, Final residual = 0.0620089, No Iterations 1
GAMG:  Solving for p, Initial residual = 0.0958428, Final residual = 0.0077788, No Iterations 2
time step continuity errors : sum local = 2.29091e-07, global = 6.97932e-09
GAMG:  Solving for p, Initial residual = 0.382931, Final residual = 0.0323662, No Iterations 1
GAMG:  Solving for p, Initial residual = 0.103458, Final residual = 9.8162e-07, No Iterations 14
time step continuity errors : sum local = 1.65915e-11, global = 6.43542e-12, cumulative = 8.1552e-11
ExecutionTime = 1.05002 s  ClockTime = 1 s

Courant Number mean: 0.02398 max: 0.0728625
Time = 8.2s

DILUPBiCGStab:  Solving for Ux, Initial residual = 0.00432652, Final residual = 3.06718e-06, No Iterations 2
DILUPBiCGStab:  Solving for Uy, Initial residual = 0.00697322, Final residual = 2.58903e-06, No Iterations 2
GAMG:  Solving for p, Initial residual = 0.608506, Final residual = 0.047719, No Iterations 1
GAMG:  Solving for p, Initial residual = 0.0868434, Final residual = 0.00702608, No Iterations 2
time step continuity errors : sum local = 2.24893e-07, global = -6.69546e-09
GAMG:  Solving for p, Initial residual = 0.431857, Final residual = 0.036529, No Iterations 1
GAMG:  Solving for p, Initial residual = 0.112397, Final residual = 6.60413e-07, No Iterations 15
time step continuity errors : sum local = 1.01072e-11, global = -1.78686e-12, cumulative = 7.97651e-11
ExecutionTime = 1.06077 s  ClockTime = 1 s

Courant Number mean: 0.0239735 max: 0.0726986
Time = 8.3s

DILUPBiCGStab:  Solving for Ux, Initial residual = 0.00406228, Final residual = 2.75968e-06, No Iterations 2
DILUPBiCGStab:  Solving for Uy, Initial residual = 0.00889987, Final residual = 2.69317e-06, No Iterations 2
GAMG:  Solving for p, Initial residual = 0.780879, Final residual = 0.0611864, No Iterations 1
GAMG:  Solving for p, Initial residual = 0.0949059, Final residual = 0.00769921, No Iterations 2
time step continuity errors : sum local = 2.22167e-07, global = 6.92057e-09
GAMG:  Solving for p, Initial residual = 0.377616, Final residual = 0.0319485, No Iterations 1
GAMG:  Solving for p, Initial residual = 0.10145, Final residual = 9.71558e-07, No Iterations 14
time step continuity errors : sum local = 1.62401e-11, global = 6.41088e-12, cumulative = 8.6176e-11
ExecutionTime = 1.07115 s  ClockTime = 1 s

Courant Number mean: 0.0239692 max: 0.0724522
Time = 8.4s

DILUPBiCGStab:  Solving for Ux, Initial residual = 0.00420399, Final residual = 2.94158e-06, No Iterations 2
DILUPBiCGStab:  Solving for Uy, Initial residual = 0.00674489, Final residual = 2.48108e-06, No Iterations 2
GAMG:  Solving for p, Initial residual = 0.599387, Final residual = 0.0470775, No Iterations 1
GAMG:  Solving for p, Initial residual = 0.0859668, Final residual = 0.00695215, No Iterations 2
time step continuity errors : sum local = 2.18133e-07, global = -6.6412e-09
GAMG:  Solving for p, Initial residual = 0.425198, Final residual = 0.0360017, No Iterations 1
GAMG:  Solving for p, Initial residual = 0.10985, Final residual = 6.60039e-07, No Iterations 15
time step continuity errors : sum local = 1.00246e-11, global = -1.70038e-12, cumulative = 8.44756e-11
ExecutionTime = 1.08186 s  ClockTime = 1 s

Courant Number mean: 0.0239627 max: 0.0722919
Time = 8.5s

DILUPBiCGStab:  Solving for Ux, Initial residual = 0.00392748, Final residual = 2.64786e-06, No Iterations 2
DILUPBiCGStab:  Solving for Uy, Initial residual = 0.00859598, Final residual = 2.58096e-06, No Iterations 2
GAMG:  Solving for p, Initial residual = 0.768991, Final residual = 0.0603496, No Iterations 1
GAMG:  Solving for p, Initial residual = 0.093945, Final residual = 0.00761798, No Iterations 2
time step continuity errors : sum local = 2.15511e-07, global = 6.86178e-09
GAMG:  Solving for p, Initial residual = 0.372242, Final residual = 0.031525, No Iterations 1
GAMG:  Solving for p, Initial residual = 0.0994452, Final residual = 9.6118e-07, No Iterations 14
time step continuity errors : sum local = 1.58988e-11, global = 6.36793e-12, cumulative = 9.08436e-11
ExecutionTime = 1.09222 s  ClockTime = 1 s

Courant Number mean: 0.0239584 max: 0.0720531
Time = 8.6s

DILUPBiCGStab:  Solving for Ux, Initial residual = 0.00408772, Final residual = 2.82262e-06, No Iterations 2
DILUPBiCGStab:  Solving for Uy, Initial residual = 0.00652789, Final residual = 2.37888e-06, No Iterations 2
GAMG:  Solving for p, Initial residual = 0.590284, Final residual = 0.0464352, No Iterations 1
GAMG:  Solving for p, Initial residual = 0.0850786, Final residual = 0.00687758, No Iterations 2
time step continuity errors : sum local = 2.11635e-07, global = -6.58367e-09
GAMG:  Solving for p, Initial residual = 0.418508, Final residual = 0.0354705, No Iterations 1
GAMG:  Solving for p, Initial residual = 0.107333, Final residual = 6.58438e-07, No Iterations 15
time step continuity errors : sum local = 9.92905e-12, global = -1.62271e-12, cumulative = 8.92208e-11
ExecutionTime = 1.10296 s  ClockTime = 1 s

Courant Number mean: 0.0239519 max: 0.0718963
Time = 8.7s

DILUPBiCGStab:  Solving for Ux, Initial residual = 0.00380043, Final residual = 2.54186e-06, No Iterations 2
DILUPBiCGStab:  Solving for Uy, Initial residual = 0.00830665, Final residual = 2.47472e-06, No Iterations 2
GAMG:  Solving for p, Initial residual = 0.756914, Final residual = 0.0594953, No Iterations 1
GAMG:  Solving for p, Initial residual = 0.0929646, Final residual = 0.00753534, No Iterations 2
time step continuity errors : sum local = 2.09111e-07, global = 6.79985e-09
GAMG:  Solving for p, Initial residual = 0.366839, Final residual = 0.0310984, No Iterations 1
GAMG:  Solving for p, Initial residual = 0.0974494, Final residual = 9.50264e-07, No Iterations 14
time step continuity errors : sum local = 1.55627e-11, global = 6.31506e-12, cumulative = 9.55359e-11
ExecutionTime = 1.11336 s  ClockTime = 1 s

Courant Number mean: 0.0239474 max: 0.0716648
Time = 8.8s

DILUPBiCGStab:  Solving for Ux, Initial residual = 0.00397741, Final residual = 2.70992e-06, No Iterations 2
DILUPBiCGStab:  Solving for Uy, Initial residual = 0.00632148, Final residual = 2.28208e-06, No Iterations 2
GAMG:  Solving for p, Initial residual = 0.581196, Final residual = 0.0457932, No Iterations 1
GAMG:  Solving for p, Initial residual = 0.0841791, Final residual = 0.00680219, No Iterations 2
time step continuity errors : sum local = 2.05384e-07, global = -6.52162e-09
[...]
GAMG:  Solving for p, Initial residual = 5.79375e-07, Final residual = 5.79375e-07, No Iterations 0
time step continuity errors : sum local = 4.01998e-12, global = -5.26697e-14
GAMG:  Solving for p, Initial residual = 6.60287e-07, Final residual = 6.60287e-07, No Iterations 0
GAMG:  Solving for p, Initial residual = 6.60287e-07, Final residual = 6.60287e-07, No Iterations 0
time step continuity errors : sum local = 4.58138e-12, global = -5.60354e-14, cumulative = 8.30623e-10
ExecutionTime = 24.1811 s  ClockTime = 24 s

Courant Number mean: 0.0211758 max: 0.0539668
Time = 398s

DILUPBiCGStab:  Solving for Ux, Initial residual = 3.8014e-08, Final residual = 3.8014e-08, No Iterations 0
DILUPBiCGStab:  Solving for Uy, Initial residual = 8.36993e-08, Final residual = 8.36993e-08, No Iterations 0
GAMG:  Solving for p, Initial residual = 7.50993e-07, Final residual = 7.50993e-07, No Iterations 0
GAMG:  Solving for p, Initial residual = 7.50993e-07, Final residual = 7.50993e-07, No Iterations 0
time step continuity errors : sum local = 5.21074e-12, global = -1.04066e-13
GAMG:  Solving for p, Initial residual = 8.1994e-07, Final residual = 8.1994e-07, No Iterations 0
GAMG:  Solving for p, Initial residual = 8.1994e-07, Final residual = 8.1994e-07, No Iterations 0
time step continuity errors : sum local = 5.68913e-12, global = -1.08548e-13, cumulative = 8.30514e-10
ExecutionTime = 24.184 s  ClockTime = 24 s

forceCoeffs forceCoeffs write:
    Cm    = 3.45323e-07
    Cd    = 13.4027
    Cl    = -5.07193e-05
    Cl(f) = -2.50143e-05
    Cl(r) = -2.5705e-05

Courant Number mean: 0.0211758 max: 0.0539668
Time = 398.1s

DILUPBiCGStab:  Solving for Ux, Initial residual = 3.79741e-08, Final residual = 3.79741e-08, No Iterations 0
DILUPBiCGStab:  Solving for Uy, Initial residual = 8.35658e-08, Final residual = 8.35658e-08, No Iterations 0
GAMG:  Solving for p, Initial residual = 8.86391e-07, Final residual = 8.86391e-07, No Iterations 0
GAMG:  Solving for p, Initial residual = 8.86391e-07, Final residual = 8.86391e-07, No Iterations 0
time step continuity errors : sum local = 6.15019e-12, global = -1.65411e-13
GAMG:  Solving for p, Initial residual = 9.50894e-07, Final residual = 9.50894e-07, No Iterations 0
GAMG:  Solving for p, Initial residual = 9.50894e-07, Final residual = 9.50894e-07, No Iterations 0
time step continuity errors : sum local = 6.59775e-12, global = -1.7095e-13, cumulative = 8.30343e-10
ExecutionTime = 24.1871 s  ClockTime = 24 s

Courant Number mean: 0.0211758 max: 0.0539668
Time = 398.2s

DILUPBiCGStab:  Solving for Ux, Initial residual = 3.79434e-08, Final residual = 3.79434e-08, No Iterations 0
DILUPBiCGStab:  Solving for Uy, Initial residual = 8.34497e-08, Final residual = 8.34497e-08, No Iterations 0
GAMG:  Solving for p, Initial residual = 1.00304e-06, Final residual = 8.88116e-08, No Iterations 1
GAMG:  Solving for p, Initial residual = 4.0847e-07, Final residual = 4.0847e-07, No Iterations 0
time step continuity errors : sum local = 2.83416e-12, global = -7.42182e-14
GAMG:  Solving for p, Initial residual = 9.48647e-07, Final residual = 9.48647e-07, No Iterations 0
GAMG:  Solving for p, Initial residual = 9.48647e-07, Final residual = 9.48647e-07, No Iterations 0
time step continuity errors : sum local = 6.58216e-12, global = -6.71786e-14, cumulative = 8.30276e-10
ExecutionTime = 24.1906 s  ClockTime = 24 s

Courant Number mean: 0.0211758 max: 0.0539668
Time = 398.3s

DILUPBiCGStab:  Solving for Ux, Initial residual = 3.87987e-08, Final residual = 3.87987e-08, No Iterations 0
DILUPBiCGStab:  Solving for Uy, Initial residual = 8.55612e-08, Final residual = 8.55612e-08, No Iterations 0
GAMG:  Solving for p, Initial residual = 1.67299e-06, Final residual = 9.1594e-08, No Iterations 1
GAMG:  Solving for p, Initial residual = 6.78774e-07, Final residual = 6.78774e-07, No Iterations 0
time step continuity errors : sum local = 4.70965e-12, global = -5.1629e-14
GAMG:  Solving for p, Initial residual = 1.39429e-06, Final residual = 1.27707e-07, No Iterations 1
GAMG:  Solving for p, Initial residual = 5.88958e-07, Final residual = 5.88958e-07, No Iterations 0
time step continuity errors : sum local = 4.08647e-12, global = -4.30194e-14, cumulative = 8.30233e-10
ExecutionTime = 24.1943 s  ClockTime = 24 s

Courant Number mean: 0.0211758 max: 0.0539668
Time = 398.4s

DILUPBiCGStab:  Solving for Ux, Initial residual = 3.79976e-08, Final residual = 3.79976e-08, No Iterations 0
DILUPBiCGStab:  Solving for Uy, Initial residual = 8.33203e-08, Final residual = 8.33203e-08, No Iterations 0
GAMG:  Solving for p, Initial residual = 9.77554e-07, Final residual = 9.77554e-07, No Iterations 0
GAMG:  Solving for p, Initial residual = 9.77554e-07, Final residual = 9.77554e-07, No Iterations 0
time step continuity errors : sum local = 6.78273e-12, global = -4.41033e-14
GAMG:  Solving for p, Initial residual = 1.14595e-06, Final residual = 1.05329e-07, No Iterations 1
GAMG:  Solving for p, Initial residual = 4.85e-07, Final residual = 4.85e-07, No Iterations 0
time step continuity errors : sum local = 3.36516e-12, global = -7.26373e-14, cumulative = 8.3016e-10
ExecutionTime = 24.1977 s  ClockTime = 24 s

Courant Number mean: 0.0211758 max: 0.0539668
Time = 398.5s

DILUPBiCGStab:  Solving for Ux, Initial residual = 3.80532e-08, Final residual = 3.80532e-08, No Iterations 0
DILUPBiCGStab:  Solving for Uy, Initial residual = 8.41094e-08, Final residual = 8.41094e-08, No Iterations 0
GAMG:  Solving for p, Initial residual = 1.3353e-06, Final residual = 9.47557e-08, No Iterations 1
GAMG:  Solving for p, Initial residual = 5.584e-07, Final residual = 5.584e-07, No Iterations 0
time step continuity errors : sum local = 3.87444e-12, global = -1.10993e-13
GAMG:  Solving for p, Initial residual = 9.41578e-07, Final residual = 9.41578e-07, No Iterations 0
GAMG:  Solving for p, Initial residual = 9.41578e-07, Final residual = 9.41578e-07, No Iterations 0
time step continuity errors : sum local = 6.53311e-12, global = -1.14972e-13, cumulative = 8.30045e-10
ExecutionTime = 24.201 s  ClockTime = 24 s

Courant Number mean: 0.0211758 max: 0.0539668
Time = 398.6s

DILUPBiCGStab:  Solving for Ux, Initial residual = 3.79368e-08, Final residual = 3.79368e-08, No Iterations 0
DILUPBiCGStab:  Solving for Uy, Initial residual = 8.44105e-08, Final residual = 8.44105e-08, No Iterations 0
GAMG:  Solving for p, Initial residual = 1.52366e-06, Final residual = 9.80329e-08, No Iterations 1
GAMG:  Solving for p, Initial residual = 6.41048e-07, Final residual = 6.41048e-07, No Iterations 0
time step continuity errors : sum local = 4.4479e-12, global = -9.47073e-14
GAMG:  Solving for p, Initial residual = 1.2609e-06, Final residual = 1.01498e-07, No Iterations 1
GAMG:  Solving for p, Initial residual = 5.40775e-07, Final residual = 5.40775e-07, No Iterations 0
time step continuity errors : sum local = 3.75215e-12, global = -7.51741e-14, cumulative = 8.2997e-10
ExecutionTime = 24.2048 s  ClockTime = 24 s

Courant Number mean: 0.0211758 max: 0.0539668
Time = 398.7s

DILUPBiCGStab:  Solving for Ux, Initial residual = 3.75287e-08, Final residual = 3.75287e-08, No Iterations 0
DILUPBiCGStab:  Solving for Uy, Initial residual = 8.28197e-08, Final residual = 8.28197e-08, No Iterations 0
GAMG:  Solving for p, Initial residual = 8.68343e-07, Final residual = 8.68343e-07, No Iterations 0
GAMG:  Solving for p, Initial residual = 8.68343e-07, Final residual = 8.68343e-07, No Iterations 0
time step continuity errors : sum local = 6.02498e-12, global = -7.30834e-14
GAMG:  Solving for p, Initial residual = 9.63029e-07, Final residual = 9.63029e-07, No Iterations 0
GAMG:  Solving for p, Initial residual = 9.63029e-07, Final residual = 9.63029e-07, No Iterations 0
time step continuity errors : sum local = 6.68195e-12, global = -6.99586e-14, cumulative = 8.299e-10
ExecutionTime = 24.2077 s  ClockTime = 24 s

Courant Number mean: 0.0211758 max: 0.0539668
Time = 398.8s

DILUPBiCGStab:  Solving for Ux, Initial residual = 3.7443e-08, Final residual = 3.7443e-08, No Iterations 0
DILUPBiCGStab:  Solving for Uy, Initial residual = 8.25731e-08, Final residual = 8.25731e-08, No Iterations 0
GAMG:  Solving for p, Initial residual = 1.21799e-06, Final residual = 8.3347e-08, No Iterations 1
GAMG:  Solving for p, Initial residual = 4.87802e-07, Final residual = 4.87802e-07, No Iterations 0
time step continuity errors : sum local = 3.3846e-12, global = -9.07852e-14
GAMG:  Solving for p, Initial residual = 1.05239e-06, Final residual = 9.09915e-08, No Iterations 1
GAMG:  Solving for p, Initial residual = 4.51517e-07, Final residual = 4.51517e-07, No Iterations 0
time step continuity errors : sum local = 3.13284e-12, global = -6.89851e-14, cumulative = 8.29831e-10
ExecutionTime = 24.2114 s  ClockTime = 24 s

Courant Number mean: 0.0211758 max: 0.0539668
Time = 398.9s

DILUPBiCGStab:  Solving for Ux, Initial residual = 3.72968e-08, Final residual = 3.72968e-08, No Iterations 0
DILUPBiCGStab:  Solving for Uy, Initial residual = 8.23273e-08, Final residual = 8.23273e-08, No Iterations 0
GAMG:  Solving for p, Initial residual = 6.11261e-07, Final residual = 6.11261e-07, No Iterations 0
GAMG:  Solving for p, Initial residual = 6.11261e-07, Final residual = 6.11261e-07, No Iterations 0
time step continuity errors : sum local = 4.24122e-12, global = -1.00041e-13
GAMG:  Solving for p, Initial residual = 6.73861e-07, Final residual = 6.73861e-07, No Iterations 0
GAMG:  Solving for p, Initial residual = 6.73861e-07, Final residual = 6.73861e-07, No Iterations 0
time step continuity errors : sum local = 4.67557e-12, global = -1.02036e-13, cumulative = 8.29729e-10
ExecutionTime = 24.2143 s  ClockTime = 24 s

Courant Number mean: 0.0211758 max: 0.0539668
Time = 399s

DILUPBiCGStab:  Solving for Ux, Initial residual = 3.72369e-08, Final residual = 3.72369e-08, No Iterations 0
DILUPBiCGStab:  Solving for Uy, Initial residual = 8.21477e-08, Final residual = 8.21477e-08, No Iterations 0
GAMG:  Solving for p, Initial residual = 7.81835e-07, Final residual = 7.81835e-07, No Iterations 0
GAMG:  Solving for p, Initial residual = 7.81835e-07, Final residual = 7.81835e-07, No Iterations 0
time step continuity errors : sum local = 5.42474e-12, global = -1.42993e-13
GAMG:  Solving for p, Initial residual = 8.45391e-07, Final residual = 8.45391e-07, No Iterations 0
GAMG:  Solving for p, Initial residual = 8.45391e-07, Final residual = 8.45391e-07, No Iterations 0
time step continuity errors : sum local = 5.86573e-12, global = -1.46119e-13, cumulative = 8.29583e-10
ExecutionTime = 24.2172 s  ClockTime = 24 s

forceCoeffs forceCoeffs write:
    Cm    = 2.99261e-07
    Cd    = 13.4027
    Cl    = -4.95802e-05
    Cl(f) = -2.44908e-05
    Cl(r) = -2.50893e-05

Courant Number mean: 0.0211758 max: 0.0539668
Time = 399.1s

DILUPBiCGStab:  Solving for Ux, Initial residual = 3.71963e-08, Final residual = 3.71963e-08, No Iterations 0
DILUPBiCGStab:  Solving for Uy, Initial residual = 8.20123e-08, Final residual = 8.20123e-08, No Iterations 0
GAMG:  Solving for p, Initial residual = 9.17005e-07, Final residual = 9.17005e-07, No Iterations 0
GAMG:  Solving for p, Initial residual = 9.17005e-07, Final residual = 9.17005e-07, No Iterations 0
time step continuity errors : sum local = 6.36262e-12, global = -1.95895e-13
GAMG:  Solving for p, Initial residual = 9.82841e-07, Final residual = 9.82841e-07, No Iterations 0
GAMG:  Solving for p, Initial residual = 9.82841e-07, Final residual = 9.82841e-07, No Iterations 0
time step continuity errors : sum local = 6.81942e-12, global = -2.00094e-13, cumulative = 8.29383e-10
ExecutionTime = 24.2202 s  ClockTime = 24 s

Courant Number mean: 0.0211758 max: 0.0539668
Time = 399.2s

DILUPBiCGStab:  Solving for Ux, Initial residual = 3.7164e-08, Final residual = 3.7164e-08, No Iterations 0
DILUPBiCGStab:  Solving for Uy, Initial residual = 8.18946e-08, Final residual = 8.18946e-08, No Iterations 0
GAMG:  Solving for p, Initial residual = 1.0334e-06, Final residual = 8.64534e-08, No Iterations 1
GAMG:  Solving for p, Initial residual = 4.18221e-07, Final residual = 4.18221e-07, No Iterations 0
time step continuity errors : sum local = 2.90182e-12, global = -9.98772e-14
GAMG:  Solving for p, Initial residual = 9.73033e-07, Final residual = 9.73033e-07, No Iterations 0
GAMG:  Solving for p, Initial residual = 9.73033e-07, Final residual = 9.73033e-07, No Iterations 0
time step continuity errors : sum local = 6.75137e-12, global = -9.54208e-14, cumulative = 8.29287e-10
ExecutionTime = 24.2235 s  ClockTime = 24 s

Courant Number mean: 0.0211758 max: 0.0539668
Time = 399.3s

DILUPBiCGStab:  Solving for Ux, Initial residual = 3.80627e-08, Final residual = 3.80627e-08, No Iterations 0
DILUPBiCGStab:  Solving for Uy, Initial residual = 8.42426e-08, Final residual = 8.42426e-08, No Iterations 0
GAMG:  Solving for p, Initial residual = 1.746e-06, Final residual = 1.00435e-07, No Iterations 1
GAMG:  Solving for p, Initial residual = 7.11083e-07, Final residual = 7.11083e-07, No Iterations 0
time step continuity errors : sum local = 4.93383e-12, global = -9.13188e-14
GAMG:  Solving for p, Initial residual = 1.44877e-06, Final residual = 1.28205e-07, No Iterations 1
GAMG:  Solving for p, Initial residual = 6.1114e-07, Final residual = 6.1114e-07, No Iterations 0
time step continuity errors : sum local = 4.24038e-12, global = -8.34704e-14, cumulative = 8.29204e-10
ExecutionTime = 24.2272 s  ClockTime = 24 s

Courant Number mean: 0.0211758 max: 0.0539668
Time = 399.4s

DILUPBiCGStab:  Solving for Ux, Initial residual = 3.72621e-08, Final residual = 3.72621e-08, No Iterations 0
DILUPBiCGStab:  Solving for Uy, Initial residual = 8.20462e-08, Final residual = 8.20462e-08, No Iterations 0
GAMG:  Solving for p, Initial residual = 1.01217e-06, Final residual = 6.23209e-08, No Iterations 1
GAMG:  Solving for p, Initial residual = 3.97409e-07, Final residual = 3.97409e-07, No Iterations 0
time step continuity errors : sum local = 2.75741e-12, global = -1.25048e-13
GAMG:  Solving for p, Initial residual = 8.13935e-07, Final residual = 8.13935e-07, No Iterations 0
GAMG:  Solving for p, Initial residual = 8.13935e-07, Final residual = 8.13935e-07, No Iterations 0
time step continuity errors : sum local = 5.64747e-12, global = -1.28764e-13, cumulative = 8.29075e-10
ExecutionTime = 24.2306 s  ClockTime = 24 s

Courant Number mean: 0.0211758 max: 0.0539668
Time = 399.5s

DILUPBiCGStab:  Solving for Ux, Initial residual = 3.74187e-08, Final residual = 3.74187e-08, No Iterations 0
DILUPBiCGStab:  Solving for Uy, Initial residual = 8.31022e-08, Final residual = 8.31022e-08, No Iterations 0
GAMG:  Solving for p, Initial residual = 1.32361e-06, Final residual = 6.79233e-08, No Iterations 1
GAMG:  Solving for p, Initial residual = 5.45145e-07, Final residual = 5.45145e-07, No Iterations 0
time step continuity errors : sum local = 3.78248e-12, global = -1.20332e-13
GAMG:  Solving for p, Initial residual = 1.13255e-06, Final residual = 1.19101e-07, No Iterations 1
GAMG:  Solving for p, Initial residual = 5.02158e-07, Final residual = 5.02158e-07, No Iterations 0
time step continuity errors : sum local = 3.48422e-12, global = -1.10224e-13, cumulative = 8.28965e-10
ExecutionTime = 24.2343 s  ClockTime = 24 s

Courant Number mean: 0.0211758 max: 0.0539668
Time = 399.6s

DILUPBiCGStab:  Solving for Ux, Initial residual = 3.66452e-08, Final residual = 3.66452e-08, No Iterations 0
DILUPBiCGStab:  Solving for Uy, Initial residual = 8.14067e-08, Final residual = 8.14067e-08, No Iterations 0
GAMG:  Solving for p, Initial residual = 7.90154e-07, Final residual = 7.90154e-07, No Iterations 0
GAMG:  Solving for p, Initial residual = 7.90154e-07, Final residual = 7.90154e-07, No Iterations 0
time step continuity errors : sum local = 5.48247e-12, global = -1.23832e-13
GAMG:  Solving for p, Initial residual = 8.97868e-07, Final residual = 8.97868e-07, No Iterations 0
GAMG:  Solving for p, Initial residual = 8.97868e-07, Final residual = 8.97868e-07, No Iterations 0
time step continuity errors : sum local = 6.22985e-12, global = -1.23674e-13, cumulative = 8.28841e-10
ExecutionTime = 24.2372 s  ClockTime = 24 s

Courant Number mean: 0.0211758 max: 0.0539668
Time = 399.7s

DILUPBiCGStab:  Solving for Ux, Initial residual = 3.65642e-08, Final residual = 3.65642e-08, No Iterations 0
DILUPBiCGStab:  Solving for Uy, Initial residual = 8.1174e-08, Final residual = 8.1174e-08, No Iterations 0
GAMG:  Solving for p, Initial residual = 1.12704e-06, Final residual = 8.27407e-08, No Iterations 1
GAMG:  Solving for p, Initial residual = 4.51657e-07, Final residual = 4.51657e-07, No Iterations 0
time step continuity errors : sum local = 3.13382e-12, global = -1.50689e-13
GAMG:  Solving for p, Initial residual = 9.7775e-07, Final residual = 9.7775e-07, No Iterations 0
GAMG:  Solving for p, Initial residual = 9.7775e-07, Final residual = 9.7775e-07, No Iterations 0
time step continuity errors : sum local = 6.78411e-12, global = -1.56253e-13, cumulative = 8.28685e-10
ExecutionTime = 24.2405 s  ClockTime = 24 s

Courant Number mean: 0.0211758 max: 0.0539668
Time = 399.8s

DILUPBiCGStab:  Solving for Ux, Initial residual = 3.71846e-08, Final residual = 3.71846e-08, No Iterations 0
DILUPBiCGStab:  Solving for Uy, Initial residual = 8.3256e-08, Final residual = 8.3256e-08, No Iterations 0
GAMG:  Solving for p, Initial residual = 1.75989e-06, Final residual = 9.39567e-08, No Iterations 1
GAMG:  Solving for p, Initial residual = 7.16548e-07, Final residual = 7.16548e-07, No Iterations 0
time step continuity errors : sum local = 4.97176e-12, global = -1.29062e-13
GAMG:  Solving for p, Initial residual = 1.4075e-06, Final residual = 1.18887e-07, No Iterations 1
GAMG:  Solving for p, Initial residual = 6.06309e-07, Final residual = 6.06309e-07, No Iterations 0
time step continuity errors : sum local = 4.20687e-12, global = -1.08237e-13, cumulative = 8.28577e-10
ExecutionTime = 24.2443 s  ClockTime = 24 s

Courant Number mean: 0.0211758 max: 0.0539668
Time = 399.9s

DILUPBiCGStab:  Solving for Ux, Initial residual = 3.64766e-08, Final residual = 3.64766e-08, No Iterations 0
DILUPBiCGStab:  Solving for Uy, Initial residual = 8.10552e-08, Final residual = 8.10552e-08, No Iterations 0
GAMG:  Solving for p, Initial residual = 9.90828e-07, Final residual = 9.90828e-07, No Iterations 0
GAMG:  Solving for p, Initial residual = 9.90828e-07, Final residual = 9.90828e-07, No Iterations 0
time step continuity errors : sum local = 6.87485e-12, global = -9.95341e-14
GAMG:  Solving for p, Initial residual = 1.13139e-06, Final residual = 8.8612e-08, No Iterations 1
GAMG:  Solving for p, Initial residual = 4.78567e-07, Final residual = 4.78567e-07, No Iterations 0
time step continuity errors : sum local = 3.32054e-12, global = -1.14819e-13, cumulative = 8.28462e-10
ExecutionTime = 24.2476 s  ClockTime = 24 s

Courant Number mean: 0.0211758 max: 0.0539668
Time = 400s

DILUPBiCGStab:  Solving for Ux, Initial residual = 3.66106e-08, Final residual = 3.66106e-08, No Iterations 0
DILUPBiCGStab:  Solving for Uy, Initial residual = 8.18564e-08, Final residual = 8.18564e-08, No Iterations 0
GAMG:  Solving for p, Initial residual = 1.36445e-06, Final residual = 1.02522e-07, No Iterations 1
GAMG:  Solving for p, Initial residual = 5.86364e-07, Final residual = 5.86364e-07, No Iterations 0
time step continuity errors : sum local = 4.06849e-12, global = -1.23663e-13
GAMG:  Solving for p, Initial residual = 9.5374e-07, Final residual = 9.5374e-07, No Iterations 0
GAMG:  Solving for p, Initial residual = 9.5374e-07, Final residual = 9.5374e-07, No Iterations 0
time step continuity errors : sum local = 6.61752e-12, global = -1.22793e-13, cumulative = 8.28339e-10
ExecutionTime = 24.2566 s  ClockTime = 24 s

forceCoeffs forceCoeffs write:
    Cm    = 2.54679e-07
    Cd    = 13.4027
    Cl    = -4.8711e-05
    Cl(f) = -2.41008e-05
    Cl(r) = -2.46102e-05

End

